@<TRIPOS>MOLECULE
lig
90 98 1
SMALL
NO_CHARGES
@<TRIPOS>ATOM
      1 C27         2.6095   10.2566   -0.2912 C.2       1 noname      0.0000
      2 C1         -5.9786   13.6352   -4.3180 C.3       1 noname      0.0000
      3 C2         -5.6500   15.1822   -1.0589 C.3       1 noname      0.0000
      4 C3         -6.6706   16.0463   -1.8223 C.3       1 noname      0.0000
      5 C4         -7.2454   15.1101   -2.9034 C.3       1 noname      0.0000
      6 N1         -6.3170   13.9544   -2.9319 N.3       1 noname      0.0000
      7 C5         -5.0940   14.3383   -2.2034 C.3       1 noname      0.0000
      8 C6         -4.3170   13.1483   -1.6370 C.3       1 noname      0.0000
      9 O1         -3.7412   12.3747   -2.6917 O.3       1 noname      0.0000
     10 N2          3.5919    9.2151   -3.4826 N.3       1 noname      0.0000
     11 O2          0.0900    6.4321   -2.2668 O.2       1 noname      0.0000
     12 C7          1.2354    6.5511   -2.7531 C.2       1 noname      0.0000
     13 N3          1.8273    7.7811   -2.8679 N.3       1 noname      0.0000
     14 C8          3.0769    7.9809   -3.3977 C.2       1 noname      0.0000
     15 N4          3.7882    6.8982   -3.8377 N.2       1 noname      0.0000
     16 C9          1.9572    5.4183   -3.2006 C.2       1 noname      0.0000
     17 C10         3.2324    5.6534   -3.7304 C.2       1 noname      0.0000
     18 N5          3.7528    4.4706   -4.0852 N.2       1 noname      0.0000
     19 C11         2.8301    3.5277   -3.7946 C.2       1 noname      0.0000
     20 N6          1.7226    4.0908   -3.2616 N.3       1 noname      0.0000
     21 C12         0.5451    3.3160   -2.9624 C.3       1 noname      0.0000
     22 O3         -3.4835    6.5963   -3.7273 O.3       1 noname      0.0000
     23 O4         -1.2423    4.8464    2.4284 O.2       1 noname      0.0000
     24 O5          0.8272    5.3653    0.8901 O.2       1 noname      0.0000
     25 C13        -2.5321    6.0912   -0.1805 C.2       1 noname      0.0000
     26 C14        -3.0233    6.6864   -1.3706 C.2       1 noname      0.0000
     27 C15        -2.8434    6.0923   -2.6509 C.2       1 noname      0.0000
     28 C16        -1.9892    4.9685   -2.7926 C.2       1 noname      0.0000
     29 C17        -1.5821    5.0599   -0.3614 C.2       1 noname      0.0000
     30 C18        -1.2645    4.4911   -1.6441 C.2       1 noname      0.0000
     31 N7         -0.2060    3.5565   -1.7494 N.3       1 noname      0.0000
     32 C19         0.3015    2.7505   -0.6564 C.3       1 noname      0.0000
     33 N8         -0.2966    2.8737    0.6930 N.3       1 noname      0.0000
     34 S1         -0.5716    4.5826    0.9969 S         1 noname      0.0000
     35 N9         -3.5527    7.9336   -1.3051 N.3       1 noname      0.0000
     36 N10         0.6386    8.8024   -0.0270 N.2       1 noname      0.0000
     37 N11        -3.5462   10.1529   -1.8639 N.2       1 noname      0.0000
     38 N12        -1.7019   11.5870   -1.8603 N.2       1 noname      0.0000
     39 F1          0.7592   12.2260   -1.1180 F         1 noname      0.0000
     40 C20         0.3338   11.0118   -0.9244 C.2       1 noname      0.0000
     41 C21         1.1835   10.0160   -0.3780 C.2       1 noname      0.0000
     42 C22        -0.6561    8.4306   -0.2547 C.2       1 noname      0.0000
     43 C23        -2.8391    9.1235   -1.3292 C.2       1 noname      0.0000
     44 C24        -3.0000   11.3779   -2.1303 C.2       1 noname      0.0000
     45 C25        -0.9698   10.6468   -1.2464 C.2       1 noname      0.0000
     46 C26        -1.4924    9.3512   -0.9287 C.2       1 noname      0.0000
     47 H1         -5.2961   12.7856   -4.3389 H         1 noname      0.0000
     48 H2         -6.8873   13.3849   -4.8654 H         1 noname      0.0000
     49 H3         -5.5001   14.4972   -4.7829 H         1 noname      0.0000
     50 H4         -6.1749   14.5376   -0.3538 H         1 noname      0.0000
     51 H5         -4.8944   15.7570   -0.5233 H         1 noname      0.0000
     52 H6         -7.4679   16.3511   -1.1444 H         1 noname      0.0000
     53 H7         -6.1507   16.8744   -2.3041 H         1 noname      0.0000
     54 H8         -8.2369   14.7724   -2.6018 H         1 noname      0.0000
     55 H9         -7.3141   15.6206   -3.8640 H         1 noname      0.0000
     56 H10        -4.4301   14.9107   -2.8583 H         1 noname      0.0000
     57 H11        -4.9892   12.5210   -1.0515 H         1 noname      0.0000
     58 H12        -3.5003   13.4878   -1.0000 H         1 noname      0.0000
     59 H13         4.4760    9.1700   -3.8790 H         1 noname      0.0000
     60 H14         3.0175    9.7678   -4.0354 H         1 noname      0.0000
     61 H15         1.3340    8.5561   -2.5565 H         1 noname      0.0000
     62 H16         2.9522    2.5279   -3.9553 H         1 noname      0.0000
     63 H17        -0.1301    3.3361   -3.8178 H         1 noname      0.0000
     64 H18         0.9395    2.3008   -2.9186 H         1 noname      0.0000
     65 H19        -3.2493    6.0723   -4.5216 H         1 noname      0.0000
     66 H20        -2.8437    6.3875    0.7445 H         1 noname      0.0000
     67 H21        -1.8898    4.5053   -3.6959 H         1 noname      0.0000
     68 H22         0.3144    1.7019   -0.9537 H         1 noname      0.0000
     69 H23         1.3553    3.0213   -0.5914 H         1 noname      0.0000
     70 H24        -1.1887    2.3756    0.7170 H         1 noname      0.0000
     71 H25        -4.3073    7.9967   -1.9112 H         1 noname      0.0000
     72 H26        -1.0069    7.5226    0.0501 H         1 noname      0.0000
     73 C28         3.3039    9.6780    0.8286 C.2       1 noname      0.0000
     74 C29         4.6928    9.8821    1.0478 C.2       1 noname      0.0000
     75 C30         5.4212   10.6817    0.1403 C.2       1 noname      0.0000
     76 C31         4.7989   11.2594   -0.9997 C.2       1 noname      0.0000
     77 C32         3.3825   11.0306   -1.2530 C.2       1 noname      0.0000
     78 C33         5.5799   12.0841   -1.8902 C.2       1 noname      0.0000
     79 C34         4.9504   12.6565   -3.0186 C.2       1 noname      0.0000
     80 C35         3.5803   12.4193   -3.3150 C.2       1 noname      0.0000
     81 C36         2.8217   11.5939   -2.4433 C.2       1 noname      0.0000
     82 O6          5.3078    9.3190    2.1095 O.3       1 noname      0.0000
     83 O7          1.5324   11.3326   -2.7465 O.3       1 noname      0.0000
     84 H27         2.7808    9.1014    1.4877 H         1 noname      0.0000
     85 H28         6.4138   10.8481    0.3060 H         1 noname      0.0000
     86 H29         6.5696   12.2510   -1.7082 H         1 noname      0.0000
     87 H30         5.4945   13.2569   -3.6381 H         1 noname      0.0000
     88 H31         3.1491   12.8353   -4.1405 H         1 noname      0.0000
     89 H32         4.6563    8.8023    2.6282 H         1 noname      0.0000
     90 H33         1.2956   11.7842   -3.5833 H         1 noname      0.0000
@<TRIPOS>BOND
1	1	41	1
2	1	77	2
3	1	73	1
4	2	6	1
5	2	47	1
6	2	48	1
7	2	49	1
8	3	4	1
9	3	7	1
10	3	50	1
11	3	51	1
12	4	5	1
13	4	52	1
14	4	53	1
15	5	6	1
16	5	54	1
17	5	55	1
18	6	7	1
19	7	8	1
20	7	56	1
21	8	9	1
22	8	57	1
23	8	58	1
24	9	44	1
25	10	14	1
26	10	59	1
27	10	60	1
28	11	12	2
29	12	13	1
30	12	16	1
31	13	14	1
32	13	61	1
33	14	15	2
34	15	17	1
35	16	17	2
36	16	20	1
37	17	18	1
38	18	19	2
39	19	20	1
40	19	62	1
41	20	21	1
42	21	31	1
43	21	63	1
44	21	64	1
45	22	27	1
46	22	65	1
47	23	34	2
48	24	34	2
49	25	26	2
50	25	29	1
51	25	66	1
52	26	27	1
53	26	35	1
54	27	28	2
55	28	30	1
56	28	67	1
57	29	30	2
58	29	34	1
59	30	31	1
60	31	32	1
61	32	33	1
62	32	68	1
63	32	69	1
64	33	34	1
65	33	70	1
66	35	43	1
67	35	71	1
68	36	41	2
69	36	42	1
70	37	43	2
71	37	44	1
72	38	44	2
73	38	45	1
74	39	40	1
75	40	41	1
76	40	45	2
77	42	46	2
78	42	72	1
79	43	46	1
80	45	46	1
81	73	74	2
82	73	84	1
83	74	75	1
84	74	82	1
85	75	76	2
86	75	85	1
87	76	77	1
88	76	78	1
89	77	81	1
90	78	79	2
91	78	86	1
92	79	80	1
93	79	87	1
94	80	81	2
95	80	88	1
96	81	83	1
97	82	89	1
98	83	90	1
@<TRIPOS>SUBSTRUCTURE
1	noname	1
