@<TRIPOS>MOLECULE
lig
75 82 1
SMALL
NO_CHARGES
@<TRIPOS>ATOM
      1 C1          5.1868   -5.2789   -3.0888 C.2       1 noname      0.0000
      2 C2          5.7986   -4.6677   -4.1802 C.2       1 noname      0.0000
      3 C3          4.4425   -4.5322   -2.1989 C.2       1 noname      0.0000
      4 C4          4.9120   -2.4119   -3.5448 C.2       1 noname      0.0000
      5 C5          4.2966   -3.1311   -2.4294 C.2       1 noname      0.0000
      6 C6          5.6810   -3.2751   -4.4244 C.2       1 noname      0.0000
      7 C7          6.2915   -1.4361   -5.8784 C.2       1 noname      0.0000
      8 C8          6.3661   -2.7897   -5.5656 C.2       1 noname      0.0000
      9 C9          2.9733    1.9107   -1.2006 C.2       1 noname      0.0000
     10 C10         3.4624    2.3744   -2.4463 C.2       1 noname      0.0000
     11 C11         2.6977    4.5107   -1.8290 C.2       1 noname      0.0000
     12 C12         2.4292    2.7823   -0.2294 C.2       1 noname      0.0000
     13 C13         3.0466    0.5489   -1.0073 C.2       1 noname      0.0000
     14 C14         4.2146    0.1149   -3.1227 C.2       1 noname      0.0000
     15 C15         4.0733    1.5177   -3.4007 C.2       1 noname      0.0000
     16 C16         4.8581   -0.9774   -3.8828 C.2       1 noname      0.0000
     17 C17         1.4080    5.6773   -3.1299 C.3       1 noname      0.0000
     18 C18         5.5540   -0.5731   -5.0662 C.2       1 noname      0.0000
     19 C19         0.9271    7.0841   -3.4679 C.3       1 noname      0.0000
     20 C20        -0.4231    6.9653   -4.1925 C.3       1 noname      0.0000
     21 C21        -1.4379    6.9915   -3.0459 C.3       1 noname      0.0000
     22 C22        -0.7460    7.7881   -1.9245 C.3       1 noname      0.0000
     23 C23         1.0481    9.2769   -2.5781 C.3       1 noname      0.0000
     24 C24         2.0515    9.2344   -3.7411 C.3       1 noname      0.0000
     25 C25         1.9949    7.8086   -4.2990 C.3       1 noname      0.0000
     26 C26         3.4687   -2.7088   -1.5170 C.1       1 noname      0.0000
     27 C27         2.6922   -2.4127   -0.6722 C.1       1 noname      0.0000
     28 F1          4.5048    2.1067   -4.4913 F         1 noname      0.0000
     29 F2         -1.6999    5.6956   -2.6684 F         1 noname      0.0000
     30 F3          3.9070   -5.2484   -1.2003 F         1 noname      0.0000
     31 N1          3.3236    3.6800   -2.7053 N.2       1 noname      0.0000
     32 N2          2.2747    4.0799   -0.6086 N.2       1 noname      0.0000
     33 N3          3.6730   -0.1995   -1.9304 N.2       1 noname      0.0000
     34 N4          0.6964    7.8806   -2.2462 N.3       1 noname      0.0000
     35 O1          2.4873    5.7796   -2.2026 O.3       1 noname      0.0000
     36 O2          6.9551   -0.9473   -6.9728 O.3       1 noname      0.0000
     37 N5          2.0604    2.3835    1.0444 N.3       1 noname      0.0000
     38 H1          5.2626   -6.2716   -2.9079 H         1 noname      0.0000
     39 H2          6.3360   -5.2773   -4.7878 H         1 noname      0.0000
     40 H3          6.9243   -3.4054   -6.1792 H         1 noname      0.0000
     41 H4          2.6306    0.0993   -0.1896 H         1 noname      0.0000
     42 H5          0.5923    5.1134   -2.6774 H         1 noname      0.0000
     43 H6          1.6984    5.1266   -4.0246 H         1 noname      0.0000
     44 H7          5.5990    0.3761   -5.4079 H         1 noname      0.0000
     45 H8         -0.5717    7.8374   -4.8293 H         1 noname      0.0000
     46 H9         -0.5002    6.0737   -4.8148 H         1 noname      0.0000
     47 H10        -2.3624    7.4845   -3.3401 H         1 noname      0.0000
     48 H11        -1.1720    8.7902   -1.8746 H         1 noname      0.0000
     49 H12        -0.9201    7.2303   -1.0044 H         1 noname      0.0000
     50 H13         0.1520    9.8128   -2.8908 H         1 noname      0.0000
     51 H14         1.4082    9.8263   -1.7083 H         1 noname      0.0000
     52 H15         1.7428    9.9392   -4.5132 H         1 noname      0.0000
     53 H16         3.0517    9.4192   -3.3494 H         1 noname      0.0000
     54 H17         1.6837    7.8391   -5.3432 H         1 noname      0.0000
     55 H18         2.9585    7.3258   -4.1367 H         1 noname      0.0000
     56 H19         2.1048   -2.0891   -0.0386 H         1 noname      0.0000
     57 H20         7.4186   -1.6808   -7.4283 H         1 noname      0.0000
     58 C28         0.3517    1.5026    3.7663 C.3       1 noname      0.0000
     59 C29         0.6683    2.5978    1.4641 C.3       1 noname      0.0000
     60 C30         3.0799    1.8443    1.9706 C.3       1 noname      0.0000
     61 C31         2.7191    2.0799    3.4853 C.3       1 noname      0.0000
     62 C32         0.5410    2.8335    3.0173 C.3       1 noname      0.0000
     63 C33         1.7836    0.9882    4.0466 C.3       1 noname      0.0000
     64 N6          1.8503    3.2816    3.5665 N.3       1 noname      0.0000
     65 H21        -0.1693    0.7942    3.1223 H         1 noname      0.0000
     66 H22        -0.1157    1.6959    4.7319 H         1 noname      0.0000
     67 H23         0.3654    3.5198    0.9679 H         1 noname      0.0000
     68 H24         0.1595    1.6620    1.2330 H         1 noname      0.0000
     69 H25         3.0698    0.7676    1.8007 H         1 noname      0.0000
     70 H26         3.9808    2.4208    1.7605 H         1 noname      0.0000
     71 H27         3.6494    2.1608    4.0474 H         1 noname      0.0000
     72 H28        -0.2612    3.5530    3.1812 H         1 noname      0.0000
     73 H29         1.9204    0.9590    5.1276 H         1 noname      0.0000
     74 H30         1.9345    0.0862    3.4536 H         1 noname      0.0000
     75 H31         2.0947    4.1970    3.9164 H         1 noname      0.0000
@<TRIPOS>BOND
1	1	3	1
2	1	2	2
3	1	38	1
4	2	6	1
5	2	39	1
6	3	30	1
7	3	5	2
8	4	5	1
9	4	6	1
10	4	16	2
11	5	26	1
12	6	8	2
13	7	18	2
14	7	8	1
15	7	36	1
16	8	40	1
17	9	10	1
18	9	12	1
19	9	13	2
20	10	31	1
21	10	15	2
22	11	35	1
23	11	31	2
24	11	32	1
25	12	32	2
26	12	37	1
27	13	33	1
28	13	41	1
29	14	15	1
30	14	16	1
31	14	33	2
32	15	28	1
33	16	18	1
34	17	19	1
35	17	35	1
36	17	42	1
37	17	43	1
38	18	44	1
39	19	25	1
40	19	20	1
41	19	34	1
42	20	21	1
43	20	45	1
44	20	46	1
45	21	29	1
46	21	22	1
47	21	47	1
48	22	34	1
49	22	48	1
50	22	49	1
51	23	24	1
52	23	34	1
53	23	50	1
54	23	51	1
55	24	25	1
56	24	52	1
57	24	53	1
58	25	54	1
59	25	55	1
60	26	27	3
61	27	56	1
62	36	57	1
63	37	59	1
64	37	60	1
65	58	63	1
66	58	62	1
67	58	65	1
68	58	66	1
69	59	62	1
70	60	61	1
71	61	63	1
72	61	64	1
73	62	64	1
74	59	67	1
75	59	68	1
76	60	69	1
77	60	70	1
78	61	71	1
79	62	72	1
80	63	73	1
81	63	74	1
82	64	75	1
@<TRIPOS>SUBSTRUCTURE
1	noname	1
