@<TRIPOS>MOLECULE
lig
72 79 1
SMALL
NO_CHARGES
@<TRIPOS>ATOM
      1 C1         -1.9818   -0.3321    5.5939 C.2       1 noname      0.0000
      2 C2         -3.1664   -0.9942    5.9423 C.2       1 noname      0.0000
      3 C3         -1.0491   -0.8992    4.7207 C.2       1 noname      0.0000
      4 C4         -2.5060   -2.9223    4.4877 C.2       1 noname      0.0000
      5 C5         -1.2568   -2.1792    4.1384 C.2       1 noname      0.0000
      6 C6         -3.4759   -2.2739    5.4276 C.2       1 noname      0.0000
      7 C7         -5.0272   -4.1064    5.3633 C.2       1 noname      0.0000
      8 C8         -4.7032   -2.8491    5.8509 C.2       1 noname      0.0000
      9 C9         -0.6075   -6.6864    1.0484 C.2       1 noname      0.0000
     10 C10        -1.8421   -7.1755    1.5315 C.2       1 noname      0.0000
     11 C11        -1.5980   -9.0714    0.1458 C.2       1 noname      0.0000
     12 C12         0.1087   -7.4329    0.0487 C.2       1 noname      0.0000
     13 C13        -0.1704   -5.4985    1.6390 C.2       1 noname      0.0000
     14 C14        -2.1938   -5.1958    3.0340 C.2       1 noname      0.0000
     15 C15        -2.6219   -6.4600    2.4805 C.2       1 noname      0.0000
     16 C16        -2.9040   -4.2613    3.9964 C.2       1 noname      0.0000
     17 C17        -4.1580   -4.7667    4.4867 C.2       1 noname      0.0000
     18 C18        -0.2741   -2.4867    3.3703 C.1       1 noname      0.0000
     19 C19         0.6684   -2.7186    2.6747 C.1       1 noname      0.0000
     20 F1         -3.7342   -7.0619    2.7906 F         1 noname      0.0000
     21 F2          0.0165   -0.1229    4.5096 F         1 noname      0.0000
     22 N1         -2.2810   -8.3606    1.0667 N.2       1 noname      0.0000
     23 N2         -0.4356   -8.6004   -0.3738 N.2       1 noname      0.0000
     24 N3         -0.9617   -4.8633    2.5531 N.2       1 noname      0.0000
     25 O1         -6.2007   -4.6821    5.7549 O.3       1 noname      0.0000
     26 N4          1.3573   -7.0722   -0.3947 N.3       1 noname      0.0000
     27 S1          2.8288  -10.8313    2.5567 S         1 noname      0.0000
     28 N5          2.8870  -10.1823    4.2069 N.3       1 noname      0.0000
     29 C20         3.6849   -8.9319    4.2951 C.3       1 noname      0.0000
     30 N6          4.7118   -8.8074    3.2864 N.3       1 noname      0.0000
     31 C21         4.2624   -8.6050    2.0057 C.2       1 noname      0.0000
     32 C22         3.2508   -9.4605    1.5220 C.2       1 noname      0.0000
     33 C23         4.5803   -7.4503    1.2512 C.2       1 noname      0.0000
     34 C24         3.6862   -6.9950    0.2566 C.2       1 noname      0.0000
     35 C25         2.4960   -7.7184    0.0182 C.2       1 noname      0.0000
     36 C26         2.4350   -9.0555    0.4685 C.2       1 noname      0.0000
     37 O2          1.3695  -11.4233    2.2617 O.2       1 noname      0.0000
     38 O3          3.9504  -11.9732    2.4764 O.2       1 noname      0.0000
     39 O4          3.9175   -5.8099   -0.3518 O.3       1 noname      0.0000
     40 C27         6.1016   -8.8362    3.6177 C.3       1 noname      0.0000
     41 N7          6.6671  -10.0515    4.1384 N.3       1 noname      0.0000
     42 C28         7.5075  -10.8670    3.4592 C.2       1 noname      0.0000
     43 N8          8.0252  -11.8262    4.2503 N.2       1 noname      0.0000
     44 C29         7.4828  -11.6262    5.4568 C.2       1 noname      0.0000
     45 C30         6.6004  -10.5480    5.3939 C.2       1 noname      0.0000
     46 N9          7.7065  -12.3010    6.6114 N.2       1 noname      0.0000
     47 C31         7.0229  -11.9450    7.7358 C.2       1 noname      0.0000
     48 N10         6.1273  -10.9222    7.7104 N.3       1 noname      0.0000
     49 C32         5.9163  -10.2023    6.5836 C.2       1 noname      0.0000
     50 O5          5.1334   -9.2398    6.7096 O.2       1 noname      0.0000
     51 N11         7.2122  -12.6046    8.8858 N.3       1 noname      0.0000
     52 H1         -1.9733   -9.9725   -0.1461 H         1 noname      0.0000
     53 H2         -1.7844    0.5948    5.9843 H         1 noname      0.0000
     54 H3         -3.7885   -0.4979    6.5867 H         1 noname      0.0000
     55 H4         -5.3690   -2.3656    6.5150 H         1 noname      0.0000
     56 H5          0.7408   -5.0956    1.3773 H         1 noname      0.0000
     57 H6         -4.5378   -5.6572    4.2512 H         1 noname      0.0000
     58 H7          1.3685   -2.9640    2.1228 H         1 noname      0.0000
     59 H8         -6.6738   -4.0777    6.3643 H         1 noname      0.0000
     60 H9          1.4732   -6.1148   -0.2909 H         1 noname      0.0000
     61 H10         1.9362  -10.0036    4.5364 H         1 noname      0.0000
     62 H11         3.0183   -8.0711    4.2431 H         1 noname      0.0000
     63 H12         4.1224   -8.9581    5.2931 H         1 noname      0.0000
     64 H13         5.3962   -6.8853    1.4939 H         1 noname      0.0000
     65 H14         1.7268   -9.6983    0.1309 H         1 noname      0.0000
     66 H15         4.7337   -5.4089    0.0135 H         1 noname      0.0000
     67 H16         6.3318   -8.0107    4.2912 H         1 noname      0.0000
     68 H17         6.5816   -8.7146    2.6466 H         1 noname      0.0000
     69 H18         7.7430  -10.7866    2.4679 H         1 noname      0.0000
     70 H19         5.6394  -10.6765    8.5167 H         1 noname      0.0000
     71 H20         7.8670  -13.3075    8.7514 H         1 noname      0.0000
     72 H21         6.3733  -12.9955    9.1762 H         1 noname      0.0000
@<TRIPOS>BOND
1	1	3	1
2	1	2	2
3	1	53	1
4	2	6	1
5	2	54	1
6	3	21	1
7	3	5	2
8	4	5	1
9	4	6	1
10	4	16	2
11	5	18	1
12	6	8	2
13	7	17	2
14	7	8	1
15	7	25	1
16	8	55	1
17	9	10	1
18	9	12	1
19	9	13	2
20	10	22	1
21	10	15	2
22	11	22	2
23	11	23	1
24	11	52	1
25	12	23	2
26	12	26	1
27	13	24	1
28	13	56	1
29	14	15	1
30	14	16	1
31	14	24	2
32	15	20	1
33	16	17	1
34	17	57	1
35	18	19	3
36	19	58	1
37	25	59	1
38	26	35	1
39	26	60	1
40	27	32	1
41	27	37	2
42	27	38	2
43	27	28	1
44	28	29	1
45	28	61	1
46	29	30	1
47	29	62	1
48	29	63	1
49	30	31	1
50	30	40	1
51	31	32	2
52	31	33	1
53	32	36	1
54	33	34	2
55	33	64	1
56	34	35	1
57	34	39	1
58	35	36	2
59	36	65	1
60	39	66	1
61	40	41	1
62	40	67	1
63	40	68	1
64	41	42	1
65	41	45	1
66	42	43	2
67	42	69	1
68	43	44	1
69	44	45	2
70	44	46	1
71	45	49	1
72	46	47	2
73	47	48	1
74	47	51	1
75	48	49	1
76	48	70	1
77	49	50	2
78	51	71	1
79	51	72	1
@<TRIPOS>SUBSTRUCTURE
1	noname	1
