@<TRIPOS>MOLECULE
lig
93 101 1
SMALL
NO_CHARGES
@<TRIPOS>ATOM
      1 C27         2.6038   10.2419   -0.2959 C.2       1 noname      0.0000
      2 C1         -5.9794   13.5818   -4.3651 C.3       1 noname      0.0000
      3 C2         -5.6458   15.1737   -1.1282 C.3       1 noname      0.0000
      4 C3         -6.6650   16.0292   -1.9032 C.3       1 noname      0.0000
      5 C4         -7.2423   15.0791   -2.9707 C.3       1 noname      0.0000
      6 N1         -6.3163   13.9211   -2.9835 N.3       1 noname      0.0000
      7 C5         -5.0922   14.3126   -2.2611 C.3       1 noname      0.0000
      8 C6         -4.3174   13.1291   -1.6784 C.3       1 noname      0.0000
      9 O1         -3.7438   12.3395   -2.7225 O.3       1 noname      0.0000
     10 N2          3.5822    9.1537   -3.4728 N.3       1 noname      0.0000
     11 O2          0.0751    6.3955   -2.2163 O.2       1 noname      0.0000
     12 C7          1.2205    6.5052   -2.7048 C.2       1 noname      0.0000
     13 N3          1.8149    7.7322   -2.8372 N.3       1 noname      0.0000
     14 C8          3.0647    7.9220   -3.3703 C.2       1 noname      0.0000
     15 N4          3.7735    6.8316   -3.7955 N.2       1 noname      0.0000
     16 C9          1.9397    5.3646   -3.1368 C.2       1 noname      0.0000
     17 C10         3.2151    5.5896   -3.6705 C.2       1 noname      0.0000
     18 N5          3.7328    4.4009   -4.0089 N.2       1 noname      0.0000
     19 C11         2.8083    3.4641   -3.7047 C.2       1 noname      0.0000
     20 N6          1.7023    4.0369   -3.1790 N.3       1 noname      0.0000
     21 C12         0.5233    3.2689   -2.8684 C.3       1 noname      0.0000
     22 O3         -3.4988    6.5467   -3.6771 O.3       1 noname      0.0000
     23 O4         -1.2579    4.8785    2.5013 O.2       1 noname      0.0000
     24 O5          0.8119    5.3714    0.9549 O.2       1 noname      0.0000
     25 C13        -2.5466    6.0893   -0.1241 C.2       1 noname      0.0000
     26 C14        -3.0371    6.6688   -1.3222 C.2       1 noname      0.0000
     27 C15        -2.8591    6.0564   -2.5941 C.2       1 noname      0.0000
     28 C16        -2.0074    4.9290   -2.7205 C.2       1 noname      0.0000
     29 C17        -1.5988    5.0536   -0.2910 C.2       1 noname      0.0000
     30 C18        -1.2831    4.4662   -1.5658 C.2       1 noname      0.0000
     31 N7         -0.2266    3.5279   -1.6585 N.3       1 noname      0.0000
     32 C19         0.2798    2.7363   -0.5546 C.3       1 noname      0.0000
     33 N8         -0.3173    2.8797    0.7932 N.3       1 noname      0.0000
     34 S1         -0.5885    4.5932    1.0733 S         1 noname      0.0000
     35 N9         -3.5638    7.9179   -1.2739 N.3       1 noname      0.0000
     36 N10         0.6299    8.7957   -0.0102 N.2       1 noname      0.0000
     37 N11        -3.5530   10.1291   -1.8637 N.2       1 noname      0.0000
     38 N12        -1.7057   11.5592   -1.8812 N.2       1 noname      0.0000
     39 F1          0.7572   12.2034   -1.1492 F         1 noname      0.0000
     40 C20         0.3293   10.9930   -0.9384 C.2       1 noname      0.0000
     41 C21         1.1772   10.0031   -0.3786 C.2       1 noname      0.0000
     42 C22        -0.6656    8.4235   -0.2320 C.2       1 noname      0.0000
     43 C23        -2.8478    9.1059   -1.3150 C.2       1 noname      0.0000
     44 C24        -3.0044   11.3492   -2.1476 C.2       1 noname      0.0000
     45 C25        -0.9752   10.6263   -1.2545 C.2       1 noname      0.0000
     46 C26        -1.5004    9.3363   -0.9184 C.2       1 noname      0.0000
     47 H1         -5.2987   12.7306   -4.3745 H         1 noname      0.0000
     48 H2         -6.8889   13.3258   -4.9085 H         1 noname      0.0000
     49 H3         -5.4993   14.4362   -4.8423 H         1 noname      0.0000
     50 H4         -6.1717   14.5402   -0.4139 H         1 noname      0.0000
     51 H5         -4.8886   15.7543   -0.6012 H         1 noname      0.0000
     52 H6         -7.4612   16.3451   -1.2292 H         1 noname      0.0000
     53 H7         -6.1436   16.8493   -2.3968 H         1 noname      0.0000
     54 H8         -8.2343   14.7477   -2.6639 H         1 noname      0.0000
     55 H9         -7.3105   15.5762   -3.9384 H         1 noname      0.0000
     56 H10        -4.4274   14.8744   -2.9242 H         1 noname      0.0000
     57 H11        -4.9906   12.5114   -1.0839 H         1 noname      0.0000
     58 H12        -3.4996   13.4757   -1.0467 H         1 noname      0.0000
     59 H13         4.4660    9.1012   -3.8690 H         1 noname      0.0000
     60 H14         3.0087    9.6998   -4.0330 H         1 noname      0.0000
     61 H15         1.3235    8.5125   -2.5364 H         1 noname      0.0000
     62 H16         2.9282    2.4619   -3.8515 H         1 noname      0.0000
     63 H17        -0.1524    3.2785   -3.7237 H         1 noname      0.0000
     64 H18         0.9156    2.2536   -2.8106 H         1 noname      0.0000
     65 H19        -3.2661    6.0111   -4.4642 H         1 noname      0.0000
     66 H20        -2.8570    6.3992    0.7968 H         1 noname      0.0000
     67 H21        -1.9095    4.4529   -3.6173 H         1 noname      0.0000
     68 H22         0.2904    1.6836   -0.8372 H         1 noname      0.0000
     69 H23         1.3342    3.0058   -0.4939 H         1 noname      0.0000
     70 H24        -1.2104    2.3838    0.8246 H         1 noname      0.0000
     71 H25        -4.3187    7.9742   -1.8804 H         1 noname      0.0000
     72 H26        -1.0181    7.5206    0.0856 H         1 noname      0.0000
     73 C28         3.2975    9.6775    0.8316 C.2       1 noname      0.0000
     74 C29         4.6870    9.8818    1.0472 C.2       1 noname      0.0000
     75 C30         5.4166   10.6670    0.1282 C.2       1 noname      0.0000
     76 C31         4.7949   11.2300   -1.0195 C.2       1 noname      0.0000
     77 C32         3.3779   11.0007   -1.2688 C.2       1 noname      0.0000
     78 C33         5.5772   12.0406   -1.9218 C.2       1 noname      0.0000
     79 C34         4.9482   12.5984   -3.0578 C.2       1 noname      0.0000
     80 C35         3.5775   12.3600   -3.3501 C.2       1 noname      0.0000
     81 C36         2.8176   11.5484   -2.4665 C.2       1 noname      0.0000
     82 N13         5.2968    9.3364    2.1085 N.3       1 noname      0.0000
     83 C37         2.9609   12.9401   -4.5396 C.3       1 noname      0.0000
     84 H27         2.7737    9.1114    1.4990 H         1 noname      0.0000
     85 H28         6.4097   10.8337    0.2911 H         1 noname      0.0000
     86 H29         6.5672   12.2079   -1.7426 H         1 noname      0.0000
     87 H30         5.4933   13.1889   -3.6859 H         1 noname      0.0000
     88 H31         1.8429   11.3499   -2.6923 H         1 noname      0.0000
     89 H32         4.6512    8.8336    2.6293 H         1 noname      0.0000
     90 H33         5.6790   10.0385    2.6579 H         1 noname      0.0000
     91 H34         2.1347   13.5860   -4.2423 H         1 noname      0.0000
     92 H35         2.5859   12.1421   -5.1804 H         1 noname      0.0000
     93 H36         3.7019   13.5255   -5.0841 H         1 noname      0.0000
@<TRIPOS>BOND
1	1	41	1
2	1	77	2
3	1	73	1
4	2	6	1
5	2	47	1
6	2	48	1
7	2	49	1
8	3	4	1
9	3	7	1
10	3	50	1
11	3	51	1
12	4	5	1
13	4	52	1
14	4	53	1
15	5	6	1
16	5	54	1
17	5	55	1
18	6	7	1
19	7	8	1
20	7	56	1
21	8	9	1
22	8	57	1
23	8	58	1
24	9	44	1
25	10	14	1
26	10	59	1
27	10	60	1
28	11	12	2
29	12	13	1
30	12	16	1
31	13	14	1
32	13	61	1
33	14	15	2
34	15	17	1
35	16	17	2
36	16	20	1
37	17	18	1
38	18	19	2
39	19	20	1
40	19	62	1
41	20	21	1
42	21	31	1
43	21	63	1
44	21	64	1
45	22	27	1
46	22	65	1
47	23	34	2
48	24	34	2
49	25	26	2
50	25	29	1
51	25	66	1
52	26	27	1
53	26	35	1
54	27	28	2
55	28	30	1
56	28	67	1
57	29	30	2
58	29	34	1
59	30	31	1
60	31	32	1
61	32	33	1
62	32	68	1
63	32	69	1
64	33	34	1
65	33	70	1
66	35	43	1
67	35	71	1
68	36	41	2
69	36	42	1
70	37	43	2
71	37	44	1
72	38	44	2
73	38	45	1
74	39	40	1
75	40	41	1
76	40	45	2
77	42	46	2
78	42	72	1
79	43	46	1
80	45	46	1
81	73	74	2
82	73	84	1
83	74	75	1
84	74	82	1
85	75	76	2
86	75	85	1
87	76	77	1
88	76	78	1
89	77	81	1
90	78	79	2
91	78	86	1
92	79	80	1
93	79	87	1
94	80	81	2
95	80	83	1
96	81	88	1
97	82	89	1
98	82	90	1
99	83	91	1
100	83	92	1
101	83	93	1
@<TRIPOS>SUBSTRUCTURE
1	noname	1
