@<TRIPOS>MOLECULE
lig
93 101 1
SMALL
NO_CHARGES
@<TRIPOS>ATOM
      1 C27         2.5618   10.2546   -0.3270 C.2       1 noname      0.0000
      2 C1         -6.0218   13.5881   -4.4006 C.3       1 noname      0.0000
      3 C2         -5.6870   15.1864   -1.1669 C.3       1 noname      0.0000
      4 C3         -6.7063   16.0405   -1.9433 C.3       1 noname      0.0000
      5 C4         -7.2841   15.0884   -3.0089 C.3       1 noname      0.0000
      6 N1         -6.3583   13.9302   -3.0196 N.3       1 noname      0.0000
      7 C5         -5.1339   14.3229   -2.2983 C.3       1 noname      0.0000
      8 C6         -4.3592   13.1403   -1.7135 C.3       1 noname      0.0000
      9 O1         -3.7860   12.3486   -2.7562 O.3       1 noname      0.0000
     10 N2          3.5391    9.1599   -3.5021 N.3       1 noname      0.0000
     11 O2          0.0319    6.4048   -2.2391 O.2       1 noname      0.0000
     12 C7          1.1771    6.5133   -2.7281 C.2       1 noname      0.0000
     13 N3          1.7717    7.7400   -2.8631 N.3       1 noname      0.0000
     14 C8          3.0214    7.9284   -3.3970 C.2       1 noname      0.0000
     15 N4          3.7299    6.8371   -3.8202 N.2       1 noname      0.0000
     16 C9          1.8960    5.3718   -3.1580 C.2       1 noname      0.0000
     17 C10         3.1713    5.5955   -3.6925 C.2       1 noname      0.0000
     18 N5          3.6886    4.4059   -4.0287 N.2       1 noname      0.0000
     19 C11         2.7640    3.4700   -3.7223 C.2       1 noname      0.0000
     20 N6          1.6583    4.0441   -3.1975 N.3       1 noname      0.0000
     21 C12         0.4792    3.2769   -2.8850 C.3       1 noname      0.0000
     22 O3         -3.5424    6.5538   -3.6992 O.3       1 noname      0.0000
     23 O4         -1.3001    4.8976    2.4820 O.2       1 noname      0.0000
     24 O5          0.7693    5.3869    0.9340 O.2       1 noname      0.0000
     25 C13        -2.5893    6.1034   -0.1455 C.2       1 noname      0.0000
     26 C14        -3.0801    6.6806   -1.3446 C.2       1 noname      0.0000
     27 C15        -2.9025    6.0656   -2.6153 C.2       1 noname      0.0000
     28 C16        -2.0511    4.9378   -2.7398 C.2       1 noname      0.0000
     29 C17        -1.6418    5.0672   -0.3106 C.2       1 noname      0.0000
     30 C18        -1.3266    4.4771   -1.5843 C.2       1 noname      0.0000
     31 N7         -0.2703    3.5385   -1.6755 N.3       1 noname      0.0000
     32 C19         0.2363    2.7489   -0.5701 C.3       1 noname      0.0000
     33 N8         -0.3604    2.8951    0.7776 N.3       1 noname      0.0000
     34 S1         -0.6312    4.6093    1.0544 S         1 noname      0.0000
     35 N9         -3.6065    7.9298   -1.2987 N.3       1 noname      0.0000
     36 N10         0.5877    8.8094   -0.0379 N.2       1 noname      0.0000
     37 N11        -3.5954   10.1399   -1.8929 N.2       1 noname      0.0000
     38 N12        -1.7478   11.5696   -1.9138 N.2       1 noname      0.0000
     39 F1          0.7153   12.2148   -1.1838 F         1 noname      0.0000
     40 C20         0.2873   11.0048   -0.9704 C.2       1 noname      0.0000
     41 C21         1.1352   10.0159   -0.4088 C.2       1 noname      0.0000
     42 C22        -0.7080    8.4370   -0.2586 C.2       1 noname      0.0000
     43 C23        -2.8903    9.1176   -1.3424 C.2       1 noname      0.0000
     44 C24        -3.0467   11.3593   -2.1794 C.2       1 noname      0.0000
     45 C25        -1.0174   10.6378   -1.2855 C.2       1 noname      0.0000
     46 C26        -1.5427    9.3486   -0.9466 C.2       1 noname      0.0000
     47 H1         -5.3413   12.7366   -4.4085 H         1 noname      0.0000
     48 H2         -6.9316   13.3311   -4.9432 H         1 noname      0.0000
     49 H3         -5.5418   14.4414   -4.8796 H         1 noname      0.0000
     50 H4         -6.2129   14.5543   -0.4513 H         1 noname      0.0000
     51 H5         -4.9296   15.7678   -0.6413 H         1 noname      0.0000
     52 H6         -7.5023   16.3579   -1.2698 H         1 noname      0.0000
     53 H7         -6.1849   16.8595   -2.4387 H         1 noname      0.0000
     54 H8         -8.2761   14.7578   -2.7011 H         1 noname      0.0000
     55 H9         -7.3524   15.5836   -3.9775 H         1 noname      0.0000
     56 H10        -4.4693   14.8832   -2.9627 H         1 noname      0.0000
     57 H11        -5.0323   12.5240   -1.1175 H         1 noname      0.0000
     58 H12        -3.5412   13.4881   -1.0826 H         1 noname      0.0000
     59 H13         4.4228    9.1064   -3.8984 H         1 noname      0.0000
     60 H14         2.9656    9.7049   -4.0632 H         1 noname      0.0000
     61 H15         1.2805    8.5210   -2.5637 H         1 noname      0.0000
     62 H16         2.8838    2.4674   -3.8671 H         1 noname      0.0000
     63 H17        -0.1966    3.2849   -3.7402 H         1 noname      0.0000
     64 H18         0.8714    2.2616   -2.8253 H         1 noname      0.0000
     65 H19        -3.3101    6.0166   -4.4852 H         1 noname      0.0000
     66 H20        -2.8994    6.4152    0.7749 H         1 noname      0.0000
     67 H21        -1.9535    4.4599   -3.6356 H         1 noname      0.0000
     68 H22         0.2466    1.6957   -0.8506 H         1 noname      0.0000
     69 H23         1.2908    3.0184   -0.5102 H         1 noname      0.0000
     70 H24        -1.2536    2.3995    0.8103 H         1 noname      0.0000
     71 H25        -4.3616    7.9850   -1.9051 H         1 noname      0.0000
     72 H26        -1.0606    7.5348    0.0609 H         1 noname      0.0000
     73 C28         3.2557    9.6924    0.8014 C.2       1 noname      0.0000
     74 C29         4.6454    9.8968    1.0162 C.2       1 noname      0.0000
     75 C30         5.3748   10.6801    0.0954 C.2       1 noname      0.0000
     76 C31         4.7529   11.2409   -1.0532 C.2       1 noname      0.0000
     77 C32         3.3358   11.0113   -1.3017 C.2       1 noname      0.0000
     78 C33         5.5351   12.0494   -1.9574 C.2       1 noname      0.0000
     79 C34         4.9059   12.6051   -3.0943 C.2       1 noname      0.0000
     80 C35         3.5350   12.3664   -3.3858 C.2       1 noname      0.0000
     81 C36         2.7753   11.5568   -2.5004 C.2       1 noname      0.0000
     82 N13         6.6795   10.8992    0.3086 N.3       1 noname      0.0000
     83 C37         2.9183   12.9443   -4.5763 C.3       1 noname      0.0000
     84 H27         2.7320    9.1277    1.4701 H         1 noname      0.0000
     85 H28         5.1097    9.4832    1.8247 H         1 noname      0.0000
     86 H29         6.5252   12.2170   -1.7788 H         1 noname      0.0000
     87 H30         5.4509   13.1943   -3.7238 H         1 noname      0.0000
     88 H31         1.8005   11.3579   -2.7255 H         1 noname      0.0000
     89 H32         6.9528   10.4541    1.1259 H         1 noname      0.0000
     90 H33         6.8380   11.8526    0.3910 H         1 noname      0.0000
     91 H34         2.0923   13.5908   -4.2801 H         1 noname      0.0000
     92 H35         2.5429   12.1450   -5.2154 H         1 noname      0.0000
     93 H36         3.6592   13.5283   -5.1222 H         1 noname      0.0000
@<TRIPOS>BOND
1	1	41	1
2	1	77	2
3	1	73	1
4	2	6	1
5	2	47	1
6	2	48	1
7	2	49	1
8	3	4	1
9	3	7	1
10	3	50	1
11	3	51	1
12	4	5	1
13	4	52	1
14	4	53	1
15	5	6	1
16	5	54	1
17	5	55	1
18	6	7	1
19	7	8	1
20	7	56	1
21	8	9	1
22	8	57	1
23	8	58	1
24	9	44	1
25	10	14	1
26	10	59	1
27	10	60	1
28	11	12	2
29	12	13	1
30	12	16	1
31	13	14	1
32	13	61	1
33	14	15	2
34	15	17	1
35	16	17	2
36	16	20	1
37	17	18	1
38	18	19	2
39	19	20	1
40	19	62	1
41	20	21	1
42	21	31	1
43	21	63	1
44	21	64	1
45	22	27	1
46	22	65	1
47	23	34	2
48	24	34	2
49	25	26	2
50	25	29	1
51	25	66	1
52	26	27	1
53	26	35	1
54	27	28	2
55	28	30	1
56	28	67	1
57	29	30	2
58	29	34	1
59	30	31	1
60	31	32	1
61	32	33	1
62	32	68	1
63	32	69	1
64	33	34	1
65	33	70	1
66	35	43	1
67	35	71	1
68	36	41	2
69	36	42	1
70	37	43	2
71	37	44	1
72	38	44	2
73	38	45	1
74	39	40	1
75	40	41	1
76	40	45	2
77	42	46	2
78	42	72	1
79	43	46	1
80	45	46	1
81	73	74	2
82	73	84	1
83	74	75	1
84	74	85	1
85	75	76	2
86	75	82	1
87	76	77	1
88	76	78	1
89	77	81	1
90	78	79	2
91	78	86	1
92	79	80	1
93	79	87	1
94	80	81	2
95	80	83	1
96	81	88	1
97	82	89	1
98	82	90	1
99	83	91	1
100	83	92	1
101	83	93	1
@<TRIPOS>SUBSTRUCTURE
1	noname	1
