@<TRIPOS>MOLECULE
lig
79 86 1
SMALL
NO_CHARGES
@<TRIPOS>ATOM
      1 C1         -1.9798   -0.3622    5.7143 C.2       1 noname      0.0000
      2 C2         -3.1664   -1.0173    6.0289 C.2       1 noname      0.0000
      3 C3         -1.0657   -0.9372    4.8279 C.2       1 noname      0.0000
      4 C4         -2.4925   -2.9977    4.4510 C.2       1 noname      0.0000
      5 C5         -1.2965   -2.2072    4.2044 C.2       1 noname      0.0000
      6 C6         -3.4060   -2.3077    5.4050 C.2       1 noname      0.0000
      7 C7         -5.0016   -4.1288    5.2777 C.2       1 noname      0.0000
      8 C8         -4.6373   -2.8922    5.7897 C.2       1 noname      0.0000
      9 C9         -0.5749   -6.6070    0.9260 C.2       1 noname      0.0000
     10 C10        -1.8230   -7.1009    1.3733 C.2       1 noname      0.0000
     11 C11        -1.5709   -8.9543   -0.0652 C.2       1 noname      0.0000
     12 C12         0.1413   -7.3139   -0.0870 C.2       1 noname      0.0000
     13 C13        -0.1368   -5.4362    1.5743 C.2       1 noname      0.0000
     14 C14        -2.1743   -5.2039    2.9344 C.2       1 noname      0.0000
     15 C15        -2.6132   -6.4350    2.3358 C.2       1 noname      0.0000
     16 C16        -2.8966   -4.3128    3.9152 C.2       1 noname      0.0000
     17 C17        -4.1639   -4.7981    4.3906 C.2       1 noname      0.0000
     18 C18        -0.2973   -2.4817    3.4379 C.1       1 noname      0.0000
     19 C19         0.6575   -2.6765    2.7532 C.1       1 noname      0.0000
     20 F1         -3.7434   -7.0369    2.6221 F         1 noname      0.0000
     21 F2          0.0138   -0.1757    4.6430 F         1 noname      0.0000
     22 N1         -2.2739   -8.2651    0.8635 N.2       1 noname      0.0000
     23 N2         -0.3995   -8.4608   -0.5590 N.2       1 noname      0.0000
     24 N3         -0.9325   -4.8379    2.4963 N.2       1 noname      0.0000
     25 O1         -6.1890   -4.6823    5.6561 O.3       1 noname      0.0000
     26 N4          1.4002   -6.9407   -0.4991 N.3       1 noname      0.0000
     27 S1          2.8133  -10.8161    2.3380 S         1 noname      0.0000
     28 N5          2.8550  -10.2271    4.0109 N.3       1 noname      0.0000
     29 C20         3.6556   -8.9825    4.1498 C.3       1 noname      0.0000
     30 N6          4.6980   -8.8306    3.1589 N.3       1 noname      0.0000
     31 C21         4.2629   -8.5818    1.8812 C.2       1 noname      0.0000
     32 C22         3.2522   -9.4126    1.3559 C.2       1 noname      0.0000
     33 C23         4.5980   -7.4064    1.1689 C.2       1 noname      0.0000
     34 C24         3.7196   -6.9095    0.1818 C.2       1 noname      0.0000
     35 C25         2.5272   -7.6126   -0.0942 C.2       1 noname      0.0000
     36 C26         2.4535   -8.9638    0.3077 C.2       1 noname      0.0000
     37 O2          1.3555  -11.3922    2.0098 O.2       1 noname      0.0000
     38 O3          3.9284  -11.9622    2.2304 O.2       1 noname      0.0000
     39 O4          3.9640   -5.7046   -0.3779 O.3       1 noname      0.0000
     40 C27         6.0860   -8.8773    3.5044 C.3       1 noname      0.0000
     41 N7          6.6389  -10.1137    3.9898 N.3       1 noname      0.0000
     42 C28         7.4802  -10.9142    3.2930 C.2       1 noname      0.0000
     43 N8          7.9807  -11.9063    4.0530 N.2       1 noname      0.0000
     44 C29         7.4261  -11.7433    5.2595 C.2       1 noname      0.0000
     45 C30         6.5527  -10.6567    5.2259 C.2       1 noname      0.0000
     46 N9          7.6331  -12.4580    6.3934 N.2       1 noname      0.0000
     47 C31         6.9391  -12.1366    7.5212 C.2       1 noname      0.0000
     48 N10         6.0498  -11.1099    7.5239 N.3       1 noname      0.0000
     49 C32         5.8566  -10.3503    6.4202 C.2       1 noname      0.0000
     50 O5          5.0823   -9.3881    6.5776 O.2       1 noname      0.0000
     51 N11         7.1106  -12.8357    8.6480 N.3       1 noname      0.0000
     52 O6         -2.0902  -10.1220   -0.4903 O.3       1 noname      0.0000
     53 H1         -1.7535    0.5483    6.1220 H         1 noname      0.0000
     54 H2         -3.8078   -0.5596    6.6803 H         1 noname      0.0000
     55 H3         -5.2888   -2.4217    6.4553 H         1 noname      0.0000
     56 H4          0.7689   -5.0131    1.3495 H         1 noname      0.0000
     57 H5         -4.5799   -5.6809    4.1378 H         1 noname      0.0000
     58 H6          1.3683   -2.8867    2.2095 H         1 noname      0.0000
     59 H7         -6.6464   -4.0798    6.2793 H         1 noname      0.0000
     60 H8          1.5201   -5.9896   -0.3512 H         1 noname      0.0000
     61 H9          1.9011  -10.0566    4.3359 H         1 noname      0.0000
     62 H10         2.9925   -8.1181    4.1150 H         1 noname      0.0000
     63 H11         4.0786   -9.0413    5.1527 H         1 noname      0.0000
     64 H12         5.4100   -6.8539    1.4434 H         1 noname      0.0000
     65 H13         1.7453   -9.5893   -0.0554 H         1 noname      0.0000
     66 H14         4.7773   -5.3220    0.0126 H         1 noname      0.0000
     67 H15         6.3122   -8.0768    4.2087 H         1 noname      0.0000
     68 H16         6.5775   -8.7256    2.5434 H         1 noname      0.0000
     69 H17         7.7273  -10.8020    2.3079 H         1 noname      0.0000
     70 H18         5.5535  -10.8875    8.3316 H         1 noname      0.0000
     71 H19         7.7623  -13.5380    8.4967 H         1 noname      0.0000
     72 H20         6.2658  -13.2307    8.9152 H         1 noname      0.0000
     73 C33        -1.5875  -11.1440    0.3762 C.3       1 noname      0.0000
     74 C34        -2.1196  -12.4388   -0.0386 C.2       1 noname      0.0000
     75 O7         -1.7794  -13.5564    0.6379 O.3       1 noname      0.0000
     76 O8         -2.8901  -12.5125   -1.0201 O.2       1 noname      0.0000
     77 H21        -1.8959  -10.9358    1.4007 H         1 noname      0.0000
     78 H22        -0.4991  -11.1640    0.3213 H         1 noname      0.0000
     79 H23        -2.1365  -14.4255    0.3595 H         1 noname      0.0000
@<TRIPOS>BOND
1	1	3	1
2	1	2	2
3	1	53	1
4	2	6	1
5	2	54	1
6	3	21	1
7	3	5	2
8	4	5	1
9	4	6	1
10	4	16	2
11	5	18	1
12	6	8	2
13	7	17	2
14	7	8	1
15	7	25	1
16	8	55	1
17	9	10	1
18	9	12	1
19	9	13	2
20	10	22	1
21	10	15	2
22	11	22	2
23	11	23	1
24	11	52	1
25	12	23	2
26	12	26	1
27	13	24	1
28	13	56	1
29	14	15	1
30	14	16	1
31	14	24	2
32	15	20	1
33	16	17	1
34	17	57	1
35	18	19	3
36	19	58	1
37	25	59	1
38	26	35	1
39	26	60	1
40	27	32	1
41	27	37	2
42	27	38	2
43	27	28	1
44	28	29	1
45	28	61	1
46	29	30	1
47	29	62	1
48	29	63	1
49	30	31	1
50	30	40	1
51	31	32	2
52	31	33	1
53	32	36	1
54	33	34	2
55	33	64	1
56	34	35	1
57	34	39	1
58	35	36	2
59	36	65	1
60	39	66	1
61	40	41	1
62	40	67	1
63	40	68	1
64	41	42	1
65	41	45	1
66	42	43	2
67	42	69	1
68	43	44	1
69	44	45	2
70	44	46	1
71	45	49	1
72	46	47	2
73	47	48	1
74	47	51	1
75	48	49	1
76	48	70	1
77	49	50	2
78	51	71	1
79	51	72	1
80	52	73	1
81	73	74	1
82	73	77	1
83	73	78	1
84	74	76	2
85	74	75	1
86	75	79	1
@<TRIPOS>SUBSTRUCTURE
1	noname	1
