@<TRIPOS>MOLECULE
lig
93 101 1
SMALL
NO_CHARGES
@<TRIPOS>ATOM
      1 C27         2.6088   10.2447   -0.3156 C.2       1 noname      0.0000
      2 C1         -5.9859   13.6107   -4.3387 C.3       1 noname      0.0000
      3 C2         -5.6369   15.1912   -1.0979 C.3       1 noname      0.0000
      4 C3         -6.6580   16.0508   -1.8658 C.3       1 noname      0.0000
      5 C4         -7.2410   15.1052   -2.9342 C.3       1 noname      0.0000
      6 N1         -6.3168   13.9459   -2.9547 N.3       1 noname      0.0000
      7 C5         -5.0892   14.3332   -2.2359 C.3       1 noname      0.0000
      8 C6         -4.3137   13.1465   -1.6604 C.3       1 noname      0.0000
      9 O1         -3.7455   12.3597   -2.7094 O.3       1 noname      0.0000
     10 N2          3.5727    9.1658   -3.5002 N.3       1 noname      0.0000
     11 O2          0.0667    6.4084   -2.2386 O.2       1 noname      0.0000
     12 C7          1.2103    6.5181   -2.7314 C.2       1 noname      0.0000
     13 N3          1.8059    7.7447   -2.8621 N.3       1 noname      0.0000
     14 C8          3.0538    7.9344   -3.3997 C.2       1 noname      0.0000
     15 N4          3.7593    6.8445   -3.8314 N.2       1 noname      0.0000
     16 C9          1.9261    5.3780   -3.1701 C.2       1 noname      0.0000
     17 C10         3.1996    5.6029   -3.7083 C.2       1 noname      0.0000
     18 N5          3.7142    4.4146   -4.0528 N.2       1 noname      0.0000
     19 C11         2.7895    3.4781   -3.7479 C.2       1 noname      0.0000
     20 N6          1.6865    4.0508   -3.2159 N.3       1 noname      0.0000
     21 C12         0.5076    3.2834   -2.9030 C.3       1 noname      0.0000
     22 O3         -3.5128    6.5697   -3.6844 O.3       1 noname      0.0000
     23 O4         -1.2493    4.8775    2.4793 O.2       1 noname      0.0000
     24 O5          0.8148    5.3726    0.9261 O.2       1 noname      0.0000
     25 C13        -2.5469    6.0990   -0.1368 C.2       1 noname      0.0000
     26 C14        -3.0414    6.6833   -1.3310 C.2       1 noname      0.0000
     27 C15        -2.8695    6.0749   -2.6056 C.2       1 noname      0.0000
     28 C16        -2.0199    4.9467   -2.7393 C.2       1 noname      0.0000
     29 C17        -1.6014    5.0626   -0.3110 C.2       1 noname      0.0000
     30 C18        -1.2917    4.4789   -1.5891 C.2       1 noname      0.0000
     31 N7         -0.2370    3.5395   -1.6893 N.3       1 noname      0.0000
     32 C19         0.2728    2.7434   -0.5900 C.3       1 noname      0.0000
     33 N8         -0.3187    2.8831    0.7607 N.3       1 noname      0.0000
     34 S1         -0.5862    4.5961    1.0476 S         1 noname      0.0000
     35 N9         -3.5661    7.9329   -1.2763 N.3       1 noname      0.0000
     36 N10         0.6340    8.8005   -0.0268 N.2       1 noname      0.0000
     37 N11        -3.5545   10.1461   -1.8588 N.2       1 noname      0.0000
     38 N12        -1.7051   11.5736   -1.8790 N.2       1 noname      0.0000
     39 F1          0.7616   12.2118   -1.1549 F         1 noname      0.0000
     40 C20         0.3328   11.0012   -0.9464 C.2       1 noname      0.0000
     41 C21         1.1815   10.0083   -0.3933 C.2       1 noname      0.0000
     42 C22        -0.6630    8.4309   -0.2446 C.2       1 noname      0.0000
     43 C23        -2.8485    9.1200   -1.3164 C.2       1 noname      0.0000
     44 C24        -3.0053   11.3664   -2.1408 C.2       1 noname      0.0000
     45 C25        -0.9735   10.6375   -1.2584 C.2       1 noname      0.0000
     46 C26        -1.4992    9.3472   -0.9245 C.2       1 noname      0.0000
     47 H1         -5.3065   12.7585   -4.3538 H         1 noname      0.0000
     48 H2         -6.8980   13.3578   -4.8793 H         1 noname      0.0000
     49 H3         -5.5066   14.4660   -4.8150 H         1 noname      0.0000
     50 H4         -6.1608   14.5561   -0.3836 H         1 noname      0.0000
     51 H5         -4.8767   15.7690   -0.5720 H         1 noname      0.0000
     52 H6         -7.4510   16.3656   -1.1876 H         1 noname      0.0000
     53 H7         -6.1374   16.8718   -2.3588 H         1 noname      0.0000
     54 H8         -8.2323   14.7742   -2.6245 H         1 noname      0.0000
     55 H9         -7.3124   15.6056   -3.8999 H         1 noname      0.0000
     56 H10        -4.4263   14.8962   -2.8999 H         1 noname      0.0000
     57 H11        -4.9854   12.5279   -1.0652 H         1 noname      0.0000
     58 H12        -3.4929   13.4899   -1.0308 H         1 noname      0.0000
     59 H13         4.4548    9.1133   -3.9001 H         1 noname      0.0000
     60 H14         2.9977    9.7146   -4.0562 H         1 noname      0.0000
     61 H15         1.3169    8.5247   -2.5567 H         1 noname      0.0000
     62 H16         2.9074    2.4762   -3.8985 H         1 noname      0.0000
     63 H17        -0.1714    3.2968   -3.7555 H         1 noname      0.0000
     64 H18         0.8987    2.2674   -2.8502 H         1 noname      0.0000
     65 H19        -3.2842    6.0364   -4.4742 H         1 noname      0.0000
     66 H20        -2.8531    6.4063    0.7864 H         1 noname      0.0000
     67 H21        -1.9264    4.4735   -3.6380 H         1 noname      0.0000
     68 H22         0.2807    1.6916   -0.8762 H         1 noname      0.0000
     69 H23         1.3278    3.0112   -0.5328 H         1 noname      0.0000
     70 H24        -1.2123    2.3884    0.7941 H         1 noname      0.0000
     71 H25        -4.3234    7.9923   -1.8796 H         1 noname      0.0000
     72 H26        -1.0156    7.5274    0.0715 H         1 noname      0.0000
     73 C28         3.3063    9.6756    0.8071 C.2       1 noname      0.0000
     74 C29         4.6969    9.8771    1.0178 C.2       1 noname      0.0000
     75 C30         5.4239   10.6644    0.0984 C.2       1 noname      0.0000
     76 C31         4.7984   11.2321   -1.0448 C.2       1 noname      0.0000
     77 C32         3.3800   11.0057   -1.2892 C.2       1 noname      0.0000
     78 C33         5.5781   12.0445   -1.9476 C.2       1 noname      0.0000
     79 C34         4.9454   12.6071   -3.0791 C.2       1 noname      0.0000
     80 C35         3.5732   12.3716   -3.3667 C.2       1 noname      0.0000
     81 C36         2.8157   11.5582   -2.4828 C.2       1 noname      0.0000
     82 N13         5.3102    9.3273    2.0748 N.3       1 noname      0.0000
     83 C37         5.7232   13.4542   -3.9786 C.3       1 noname      0.0000
     84 H27         2.7843    9.1079    1.4748 H         1 noname      0.0000
     85 H28         6.4179   10.8290    0.2578 H         1 noname      0.0000
     86 H29         6.5692   12.2098   -1.7719 H         1 noname      0.0000
     87 H30         3.1396   12.7803   -4.1946 H         1 noname      0.0000
     88 H31         1.8398   11.3618   -2.7052 H         1 noname      0.0000
     89 H32         4.6660    8.8237    2.5965 H         1 noname      0.0000
     90 H33         5.6957   10.0270    2.6250 H         1 noname      0.0000
     91 H34         5.2781   14.4485   -4.0167 H         1 noname      0.0000
     92 H35         5.7248   13.0183   -4.9776 H         1 noname      0.0000
     93 H36         6.7473   13.5284   -3.6128 H         1 noname      0.0000
@<TRIPOS>BOND
1	1	41	1
2	1	77	2
3	1	73	1
4	2	6	1
5	2	47	1
6	2	48	1
7	2	49	1
8	3	4	1
9	3	7	1
10	3	50	1
11	3	51	1
12	4	5	1
13	4	52	1
14	4	53	1
15	5	6	1
16	5	54	1
17	5	55	1
18	6	7	1
19	7	8	1
20	7	56	1
21	8	9	1
22	8	57	1
23	8	58	1
24	9	44	1
25	10	14	1
26	10	59	1
27	10	60	1
28	11	12	2
29	12	13	1
30	12	16	1
31	13	14	1
32	13	61	1
33	14	15	2
34	15	17	1
35	16	17	2
36	16	20	1
37	17	18	1
38	18	19	2
39	19	20	1
40	19	62	1
41	20	21	1
42	21	31	1
43	21	63	1
44	21	64	1
45	22	27	1
46	22	65	1
47	23	34	2
48	24	34	2
49	25	26	2
50	25	29	1
51	25	66	1
52	26	27	1
53	26	35	1
54	27	28	2
55	28	30	1
56	28	67	1
57	29	30	2
58	29	34	1
59	30	31	1
60	31	32	1
61	32	33	1
62	32	68	1
63	32	69	1
64	33	34	1
65	33	70	1
66	35	43	1
67	35	71	1
68	36	41	2
69	36	42	1
70	37	43	2
71	37	44	1
72	38	44	2
73	38	45	1
74	39	40	1
75	40	41	1
76	40	45	2
77	42	46	2
78	42	72	1
79	43	46	1
80	45	46	1
81	73	74	2
82	73	84	1
83	74	75	1
84	74	82	1
85	75	76	2
86	75	85	1
87	76	77	1
88	76	78	1
89	77	81	1
90	78	79	2
91	78	86	1
92	79	80	1
93	79	83	1
94	80	81	2
95	80	87	1
96	81	88	1
97	82	89	1
98	82	90	1
99	83	91	1
100	83	92	1
101	83	93	1
@<TRIPOS>SUBSTRUCTURE
1	noname	1
