@<TRIPOS>MOLECULE
lig
90 98 1
SMALL
NO_CHARGES
@<TRIPOS>ATOM
      1 C27         2.5674   10.2660   -0.3242 C.2       1 noname      0.0000
      2 C1         -6.0213   13.6455   -4.3491 C.3       1 noname      0.0000
      3 C2         -5.6896   15.1959   -1.0919 C.3       1 noname      0.0000
      4 C3         -6.7102   16.0598   -1.8556 C.3       1 noname      0.0000
      5 C4         -7.2862   15.1228   -2.9353 C.3       1 noname      0.0000
      6 N1         -6.3585   13.9664   -2.9632 N.3       1 noname      0.0000
      7 C5         -5.1349   14.3504   -2.2359 C.3       1 noname      0.0000
      8 C6         -4.3583   13.1605   -1.6686 C.3       1 noname      0.0000
      9 O1         -3.7836   12.3854   -2.7229 O.3       1 noname      0.0000
     10 N2          3.5470    9.2204   -3.5151 N.3       1 noname      0.0000
     11 O2          0.0441    6.4409   -2.2939 O.2       1 noname      0.0000
     12 C7          1.1893    6.5586   -2.7810 C.2       1 noname      0.0000
     13 N3          1.7819    7.7881   -2.8976 N.3       1 noname      0.0000
     14 C8          3.0313    7.9866   -3.4284 C.2       1 noname      0.0000
     15 N4          3.7417    6.9029   -3.8677 N.2       1 noname      0.0000
     16 C9          1.9101    5.4248   -3.2277 C.2       1 noname      0.0000
     17 C10         3.1851    5.6586   -3.7587 C.2       1 noname      0.0000
     18 N5          3.7045    4.4751   -4.1124 N.2       1 noname      0.0000
     19 C11         2.7814    3.5331   -3.8202 C.2       1 noname      0.0000
     20 N6          1.6746    4.0974   -3.2871 N.3       1 noname      0.0000
     21 C12         0.4968    3.3237   -2.9863 C.3       1 noname      0.0000
     22 O3         -3.5302    6.6057   -3.7522 O.3       1 noname      0.0000
     23 O4         -1.2860    4.8612    2.4040 O.2       1 noname      0.0000
     24 O5          0.7828    5.3771    0.8638 O.2       1 noname      0.0000
     25 C13        -2.5768    6.1039   -0.2054 C.2       1 noname      0.0000
     26 C14        -3.0684    6.6981   -1.3959 C.2       1 noname      0.0000
     27 C15        -2.8897    6.1025   -2.6756 C.2       1 noname      0.0000
     28 C16        -2.0363    4.9781   -2.8167 C.2       1 noname      0.0000
     29 C17        -1.6276    5.0719   -0.3858 C.2       1 noname      0.0000
     30 C18        -1.3112    4.5014   -1.6682 C.2       1 noname      0.0000
     31 N7         -0.2533    3.5660   -1.7731 N.3       1 noname      0.0000
     32 C19         0.2544    2.7609   -0.6795 C.3       1 noname      0.0000
     33 N8         -0.3427    2.8860    0.6701 N.3       1 noname      0.0000
     34 S1         -0.6164    4.5954    0.9724 S         1 noname      0.0000
     35 N9         -3.5969    7.9457   -1.3314 N.3       1 noname      0.0000
     36 N10         0.5957    8.8134   -0.0570 N.2       1 noname      0.0000
     37 N11        -3.5895   10.1644   -1.8927 N.2       1 noname      0.0000
     38 N12        -1.7442   11.5973   -1.8919 N.2       1 noname      0.0000
     39 F1          0.7177   12.2356   -1.1520 F         1 noname      0.0000
     40 C20         0.2917   11.0219   -0.9567 C.2       1 noname      0.0000
     41 C21         1.1411   10.0262   -0.4098 C.2       1 noname      0.0000
     42 C22        -0.6994    8.4421   -0.2835 C.2       1 noname      0.0000
     43 C23        -2.8826    9.1352   -1.3574 C.2       1 noname      0.0000
     44 C24        -3.0427   11.3888   -2.1608 C.2       1 noname      0.0000
     45 C25        -1.0123   10.6574   -1.2774 C.2       1 noname      0.0000
     46 C26        -1.5355    9.3624   -0.9580 C.2       1 noname      0.0000
     47 H1         -5.3393   12.7954   -4.3695 H         1 noname      0.0000
     48 H2         -6.9305   13.3951   -4.8956 H         1 noname      0.0000
     49 H3         -5.5425   14.5066   -4.8153 H         1 noname      0.0000
     50 H4         -6.2145   14.5525   -0.3858 H         1 noname      0.0000
     51 H5         -4.9332   15.7708   -0.5575 H         1 noname      0.0000
     52 H6         -7.5068   16.3659   -1.1775 H         1 noname      0.0000
     53 H7         -6.1900   16.8870   -2.3387 H         1 noname      0.0000
     54 H8         -8.2777   14.7860   -2.6327 H         1 noname      0.0000
     55 H9         -7.3553   15.6322   -3.8965 H         1 noname      0.0000
     56 H10        -4.4710   14.9216   -2.8918 H         1 noname      0.0000
     57 H11        -5.0304   12.5343   -1.0820 H         1 noname      0.0000
     58 H12        -3.5409   13.5002   -1.0325 H         1 noname      0.0000
     59 H13         4.4308    9.1742   -3.9120 H         1 noname      0.0000
     60 H14         2.9726    9.7728   -4.0681 H         1 noname      0.0000
     61 H15         1.2893    8.5638   -2.5867 H         1 noname      0.0000
     62 H16         2.9028    2.5330   -3.9799 H         1 noname      0.0000
     63 H17        -0.1789    3.3433   -3.8413 H         1 noname      0.0000
     64 H18         0.8907    2.3083   -2.9417 H         1 noname      0.0000
     65 H19        -3.2968    6.0807   -4.5461 H         1 noname      0.0000
     66 H20        -2.8876    6.4014    0.7194 H         1 noname      0.0000
     67 H21        -1.9378    4.5137   -3.7195 H         1 noname      0.0000
     68 H22         0.2665    1.7120   -0.9757 H         1 noname      0.0000
     69 H23         1.3084    3.0312   -0.6155 H         1 noname      0.0000
     70 H24        -1.2351    2.3885    0.6952 H         1 noname      0.0000
     71 H25        -4.3520    8.0087   -1.9371 H         1 noname      0.0000
     72 H26        -1.0505    7.5347    0.0226 H         1 noname      0.0000
     73 C28         3.2621    9.6882    0.7958 C.2       1 noname      0.0000
     74 C29         4.6513    9.8917    1.0139 C.2       1 noname      0.0000
     75 C30         5.3796   10.6898    0.1050 C.2       1 noname      0.0000
     76 C31         4.7569   11.2666   -1.0353 C.2       1 noname      0.0000
     77 C32         3.3402   11.0385   -1.2874 C.2       1 noname      0.0000
     78 C33         5.5379   12.0899   -1.9272 C.2       1 noname      0.0000
     79 C34         4.9079   12.6614   -3.0558 C.2       1 noname      0.0000
     80 C35         3.5375   12.4247   -3.3510 C.2       1 noname      0.0000
     81 C36         2.7790   11.6008   -2.4779 C.2       1 noname      0.0000
     82 N13         6.6839   10.9079    0.3216 N.3       1 noname      0.0000
     83 H27         2.7391    9.1127    1.4559 H         1 noname      0.0000
     84 H28         5.1162    9.4668    1.8162 H         1 noname      0.0000
     85 H29         6.5277   12.2564   -1.7460 H         1 noname      0.0000
     86 H30         5.4521   13.2608   -3.6763 H         1 noname      0.0000
     87 H31         3.1061   12.8401   -4.1767 H         1 noname      0.0000
     88 H32         1.8045   11.4037   -2.7061 H         1 noname      0.0000
     89 H33         6.9578   10.4511    1.1323 H         1 noname      0.0000
     90 H34         6.8408   11.8602    0.4183 H         1 noname      0.0000
@<TRIPOS>BOND
1	1	41	1
2	1	77	2
3	1	73	1
4	2	6	1
5	2	47	1
6	2	48	1
7	2	49	1
8	3	4	1
9	3	7	1
10	3	50	1
11	3	51	1
12	4	5	1
13	4	52	1
14	4	53	1
15	5	6	1
16	5	54	1
17	5	55	1
18	6	7	1
19	7	8	1
20	7	56	1
21	8	9	1
22	8	57	1
23	8	58	1
24	9	44	1
25	10	14	1
26	10	59	1
27	10	60	1
28	11	12	2
29	12	13	1
30	12	16	1
31	13	14	1
32	13	61	1
33	14	15	2
34	15	17	1
35	16	17	2
36	16	20	1
37	17	18	1
38	18	19	2
39	19	20	1
40	19	62	1
41	20	21	1
42	21	31	1
43	21	63	1
44	21	64	1
45	22	27	1
46	22	65	1
47	23	34	2
48	24	34	2
49	25	26	2
50	25	29	1
51	25	66	1
52	26	27	1
53	26	35	1
54	27	28	2
55	28	30	1
56	28	67	1
57	29	30	2
58	29	34	1
59	30	31	1
60	31	32	1
61	32	33	1
62	32	68	1
63	32	69	1
64	33	34	1
65	33	70	1
66	35	43	1
67	35	71	1
68	36	41	2
69	36	42	1
70	37	43	2
71	37	44	1
72	38	44	2
73	38	45	1
74	39	40	1
75	40	41	1
76	40	45	2
77	42	46	2
78	42	72	1
79	43	46	1
80	45	46	1
81	73	74	2
82	73	83	1
83	74	75	1
84	74	84	1
85	75	76	2
86	75	82	1
87	76	77	1
88	76	78	1
89	77	81	1
90	78	79	2
91	78	85	1
92	79	80	1
93	79	86	1
94	80	81	2
95	80	87	1
96	81	88	1
97	82	89	1
98	82	90	1
@<TRIPOS>SUBSTRUCTURE
1	noname	1
