@<TRIPOS>MOLECULE
lig
94 103 1
SMALL
NO_CHARGES
@<TRIPOS>ATOM
      1 C1          3.0971    2.2757    4.0791 C.2       1 noname      0.0000
      2 C2          1.7039    2.2574    4.1024 C.2       1 noname      0.0000
      3 C3          3.7858    1.1707    3.6137 C.2       1 noname      0.0000
      4 C4          1.6063   -0.0782    3.1555 C.2       1 noname      0.0000
      5 C5          3.0709    0.0427    3.1250 C.2       1 noname      0.0000
      6 C6          0.9698    1.1258    3.6630 C.2       1 noname      0.0000
      7 C7         -1.2806    0.2155    3.3437 C.2       1 noname      0.0000
      8 C8         -0.4409    1.2538    3.7498 C.2       1 noname      0.0000
      9 C9          2.4786   -4.9506    1.6517 C.2       1 noname      0.0000
     10 C10         1.0335   -4.9264    1.4578 C.2       1 noname      0.0000
     11 C11         1.1709   -7.2275    0.8095 C.2       1 noname      0.0000
     12 C12         3.1901   -6.1481    1.5037 C.2       1 noname      0.0000
     13 C13         3.2600   -3.8182    2.0733 C.2       1 noname      0.0000
     14 C14         1.0328   -2.5349    2.2589 C.2       1 noname      0.0000
     15 C15         0.3391   -3.7148    1.7666 C.2       1 noname      0.0000
     16 C16         0.6989   -1.1935    2.7343 C.2       1 noname      0.0000
     17 C17         0.4212   -9.1581    1.5327 C.3       1 noname      0.0000
     18 C18        -0.7082   -0.9667    2.8491 C.2       1 noname      0.0000
     19 C19        -0.5246  -10.3321    1.2854 C.3       1 noname      0.0000
     20 C20        -0.8368  -10.9503    2.6557 C.3       1 noname      0.0000
     21 C21        -2.1329  -10.2557    3.0770 C.3       1 noname      0.0000
     22 C22        -2.8056   -9.8297    1.7624 C.3       1 noname      0.0000
     23 C23        -2.2047  -10.9422   -0.2689 C.3       1 noname      0.0000
     24 C24        -0.9374  -11.6885   -0.7056 C.3       1 noname      0.0000
     25 C25         0.1354  -11.3304    0.3269 C.3       1 noname      0.0000
     26 C26         3.9617   -0.7358    2.6030 C.1       1 noname      0.0000
     27 C27         4.8756   -1.3594    2.1555 C.1       1 noname      0.0000
     28 F1         -0.9633   -3.7385    1.6172 F         1 noname      0.0000
     29 F2         -1.8403   -9.1598    3.8514 F         1 noname      0.0000
     30 F3          5.0955    1.3530    3.6363 F         1 noname      0.0000
     31 N1          0.4689   -6.0830    1.0229 N.2       1 noname      0.0000
     32 N2          2.5060   -7.2378    1.0692 N.2       1 noname      0.0000
     33 N3          2.3934   -2.7789    2.3354 N.2       1 noname      0.0000
     34 N4         -1.7979   -9.8895    0.6825 N.3       1 noname      0.0000
     35 O1          0.5721   -8.3611    0.3660 O.3       1 noname      0.0000
     36 O2         -2.6174    0.3345    3.4420 O.3       1 noname      0.0000
     37 N5          4.5037   -6.1745    1.8694 N.3       1 noname      0.0000
     38 H1          3.6259    3.1111    4.3941 H         1 noname      0.0000
     39 H2          1.2507    3.1044    4.4609 H         1 noname      0.0000
     40 H3         -0.8930    2.1185    4.1208 H         1 noname      0.0000
     41 H4          4.2747   -3.7952    2.1704 H         1 noname      0.0000
     42 H5          0.0330   -8.5435    2.3448 H         1 noname      0.0000
     43 H6          1.3905   -9.5134    1.8826 H         1 noname      0.0000
     44 H7         -1.3990   -1.6693    2.5959 H         1 noname      0.0000
     45 H8         -1.0184  -12.0187    2.5394 H         1 noname      0.0000
     46 H9         -0.0292  -10.8227    3.3766 H         1 noname      0.0000
     47 H10        -2.7733  -10.9405    3.6295 H         1 noname      0.0000
     48 H11        -3.6234  -10.5134    1.5345 H         1 noname      0.0000
     49 H12        -3.1650   -8.8131    1.9222 H         1 noname      0.0000
     50 H13        -2.8831  -11.6370    0.2262 H         1 noname      0.0000
     51 H14        -2.7834  -10.5397   -1.1003 H         1 noname      0.0000
     52 H15        -1.1215  -12.7626   -0.6807 H         1 noname      0.0000
     53 H16        -0.6266  -11.3153   -1.6814 H         1 noname      0.0000
     54 H17         0.4235  -12.2262    0.8771 H         1 noname      0.0000
     55 H18         0.9640  -10.8372   -0.1812 H         1 noname      0.0000
     56 H19         5.5624   -1.8581    1.8163 H         1 noname      0.0000
     57 H20        -2.8411    1.2174    3.8036 H         1 noname      0.0000
     58 S1          3.1268  -10.1988    4.1026 S         1 noname      0.0000
     59 N6          3.0685  -11.4256    2.8957 N.3       1 noname      0.0000
     60 C28         4.1245  -11.7084    2.1164 C.2       1 noname      0.0000
     61 C29         5.2865  -10.9993    2.0525 C.2       1 noname      0.0000
     62 C30         5.4628   -9.7254    2.6730 C.2       1 noname      0.0000
     63 C31         4.4320   -9.1688    3.4917 C.2       1 noname      0.0000
     64 C32         6.5689   -8.8517    2.4088 C.2       1 noname      0.0000
     65 C33         6.3916   -7.4556    2.4498 C.2       1 noname      0.0000
     66 C34         5.0870   -7.0300    2.7231 C.2       1 noname      0.0000
     67 C35         4.2919   -7.7847    3.5925 C.2       1 noname      0.0000
     68 O3          1.7229   -9.4401    4.2403 O.2       1 noname      0.0000
     69 O4          3.4360  -10.7855    5.5667 O.2       1 noname      0.0000
     70 O5          7.3552   -6.6115    2.0196 O.3       1 noname      0.0000
     71 C36         6.3968  -11.6203    1.3384 C.3       1 noname      0.0000
     72 N7          7.3823  -12.2787    2.1669 N.3       1 noname      0.0000
     73 C37         8.5314  -12.7851    1.6705 C.2       1 noname      0.0000
     74 N8          9.3087  -13.3358    2.6277 N.2       1 noname      0.0000
     75 C38         8.6473  -13.1800    3.7810 C.2       1 noname      0.0000
     76 C39         7.4290  -12.5518    3.5018 C.2       1 noname      0.0000
     77 N9          9.0009  -13.5241    5.0507 N.2       1 noname      0.0000
     78 C40         8.1558  -13.2538    6.0932 C.2       1 noname      0.0000
     79 N10         6.9438  -12.6783    5.8561 N.3       1 noname      0.0000
     80 C41         6.5648  -12.3718    4.6011 C.2       1 noname      0.0000
     81 O6          5.3886  -11.9960    4.5603 O.2       1 noname      0.0000
     82 N11         8.4612  -13.5347    7.3691 N.3       1 noname      0.0000
     83 H21         2.7246  -12.2452    3.2842 H         1 noname      0.0000
     84 H22         4.0168  -12.5538    1.5887 H         1 noname      0.0000
     85 H23         7.4733   -9.2046    2.0745 H         1 noname      0.0000
     86 H24         3.5262   -7.3643    4.1068 H         1 noname      0.0000
     87 H25         5.0607   -6.0736    1.0817 H         1 noname      0.0000
     88 H26         7.0504   -5.6863    2.1263 H         1 noname      0.0000
     89 H27         6.0075  -12.3271    0.6056 H         1 noname      0.0000
     90 H28         6.9673  -10.8662    0.7963 H         1 noname      0.0000
     91 H29         8.8018  -12.7680    0.6744 H         1 noname      0.0000
     92 H30         6.3227  -12.4860    6.5801 H         1 noname      0.0000
     93 H31         9.3411  -13.9408    7.4090 H         1 noname      0.0000
     94 H32         7.8043  -14.1499    7.7309 H         1 noname      0.0000
@<TRIPOS>BOND
1	1	3	1
2	1	2	2
3	1	38	1
4	2	6	1
5	2	39	1
6	3	30	1
7	3	5	2
8	4	5	1
9	4	6	1
10	4	16	2
11	5	26	1
12	6	8	2
13	7	18	2
14	7	8	1
15	7	36	1
16	8	40	1
17	9	10	1
18	9	12	1
19	9	13	2
20	10	31	1
21	10	15	2
22	11	35	1
23	11	31	2
24	11	32	1
25	12	32	2
26	12	37	1
27	13	33	1
28	13	41	1
29	14	15	1
30	14	16	1
31	14	33	2
32	15	28	1
33	16	18	1
34	17	19	1
35	17	35	1
36	17	42	1
37	17	43	1
38	18	44	1
39	19	25	1
40	19	20	1
41	19	34	1
42	20	21	1
43	20	45	1
44	20	46	1
45	21	29	1
46	21	22	1
47	21	47	1
48	22	34	1
49	22	48	1
50	22	49	1
51	23	24	1
52	23	34	1
53	23	50	1
54	23	51	1
55	24	25	1
56	24	52	1
57	24	53	1
58	25	54	1
59	25	55	1
60	26	27	3
61	27	56	1
62	36	57	1
63	37	66	1
64	37	87	1
65	58	63	1
66	58	68	2
67	58	69	2
68	58	59	1
69	59	60	1
70	59	83	1
71	60	61	2
72	60	84	1
73	61	62	1
74	61	71	1
75	62	63	2
76	62	64	1
77	63	67	1
78	64	65	2
79	64	85	1
80	65	66	1
81	65	70	1
82	66	67	2
83	67	86	1
84	70	88	1
85	71	72	1
86	71	89	1
87	71	90	1
88	72	73	1
89	72	76	1
90	73	74	2
91	73	91	1
92	74	75	1
93	75	76	2
94	75	77	1
95	76	80	1
96	77	78	2
97	78	79	1
98	78	82	1
99	79	80	1
100	79	92	1
101	80	81	2
102	82	93	1
103	82	94	1
@<TRIPOS>SUBSTRUCTURE
1	noname	1
