@<TRIPOS>MOLECULE
lig
93 101 1
SMALL
NO_CHARGES
@<TRIPOS>ATOM
      1 C27         2.5670   10.2566   -0.3471 C.2       1 noname      0.0000
      2 C1         -6.0285   13.6192   -4.3713 C.3       1 noname      0.0000
      3 C2         -5.6779   15.2037   -1.1326 C.3       1 noname      0.0000
      4 C3         -6.6992   16.0625   -1.9013 C.3       1 noname      0.0000
      5 C4         -7.2827   15.1156   -2.9683 C.3       1 noname      0.0000
      6 N1         -6.3588   13.9562   -2.9876 N.3       1 noname      0.0000
      7 C5         -5.1308   14.3441   -2.2697 C.3       1 noname      0.0000
      8 C6         -4.3554   13.1580   -1.6930 C.3       1 noname      0.0000
      9 O1         -3.7877   12.3697   -2.7413 O.3       1 noname      0.0000
     10 N2          3.5296    9.1735   -3.5306 N.3       1 noname      0.0000
     11 O2          0.0235    6.4183   -2.2643 O.2       1 noname      0.0000
     12 C7          1.1669    6.5272   -2.7577 C.2       1 noname      0.0000
     13 N3          1.7628    7.7535   -2.8901 N.3       1 noname      0.0000
     14 C8          3.0105    7.9423   -3.4284 C.2       1 noname      0.0000
     15 N4          3.7156    6.8517   -3.8590 N.2       1 noname      0.0000
     16 C9          1.8823    5.3864   -3.1952 C.2       1 noname      0.0000
     17 C10         3.1557    5.6104   -3.7341 C.2       1 noname      0.0000
     18 N5          3.6699    4.4215   -4.0773 N.2       1 noname      0.0000
     19 C11         2.7452    3.4856   -3.7709 C.2       1 noname      0.0000
     20 N6          1.6425    4.0592   -3.2392 N.3       1 noname      0.0000
     21 C12         0.4636    3.2924   -2.9249 C.3       1 noname      0.0000
     22 O3         -3.5565    6.5785   -3.7090 O.3       1 noname      0.0000
     23 O4         -1.2911    4.8937    2.4560 O.2       1 noname      0.0000
     24 O5          0.7726    5.3864    0.9014 O.2       1 noname      0.0000
     25 C13        -2.5894    6.1121   -0.1612 C.2       1 noname      0.0000
     26 C14        -3.0842    6.6950   -1.3559 C.2       1 noname      0.0000
     27 C15        -2.9129    6.0850   -2.6298 C.2       1 noname      0.0000
     28 C16        -2.0636    4.9564   -2.7624 C.2       1 noname      0.0000
     29 C17        -1.6441    5.0753   -0.3344 C.2       1 noname      0.0000
     30 C18        -1.3350    4.4900   -1.6119 C.2       1 noname      0.0000
     31 N7         -0.2805    3.5502   -1.7112 N.3       1 noname      0.0000
     32 C19         0.2295    2.7554   -0.6112 C.3       1 noname      0.0000
     33 N8         -0.3614    2.8969    0.7396 N.3       1 noname      0.0000
     34 S1         -0.6285    4.6103    1.0245 S         1 noname      0.0000
     35 N9         -3.6087    7.9448   -1.3026 N.3       1 noname      0.0000
     36 N10         0.5920    8.8131   -0.0557 N.2       1 noname      0.0000
     37 N11        -3.5968   10.1573   -1.8879 N.2       1 noname      0.0000
     38 N12        -1.7472   11.5844   -1.9106 N.2       1 noname      0.0000
     39 F1          0.7199   12.2229   -1.1882 F         1 noname      0.0000
     40 C20         0.2910   11.0128   -0.9780 C.2       1 noname      0.0000
     41 C21         1.1397   10.0203   -0.4240 C.2       1 noname      0.0000
     42 C22        -0.7051    8.4435   -0.2726 C.2       1 noname      0.0000
     43 C23        -2.8908    9.1317   -1.3445 C.2       1 noname      0.0000
     44 C24        -3.0475   11.3770   -2.1716 C.2       1 noname      0.0000
     45 C25        -1.0155   10.6489   -1.2891 C.2       1 noname      0.0000
     46 C26        -1.5413    9.3591   -0.9534 C.2       1 noname      0.0000
     47 H1         -5.3492   12.7668   -4.3855 H         1 noname      0.0000
     48 H2         -6.9408   13.3658   -4.9113 H         1 noname      0.0000
     49 H3         -5.5491   14.4737   -4.8489 H         1 noname      0.0000
     50 H4         -6.2017   14.5696   -0.4174 H         1 noname      0.0000
     51 H5         -4.9175   15.7820   -0.6078 H         1 noname      0.0000
     52 H6         -7.4919   16.3783   -1.2231 H         1 noname      0.0000
     53 H7         -6.1786   16.8828   -2.3955 H         1 noname      0.0000
     54 H8         -8.2740   14.7852   -2.6578 H         1 noname      0.0000
     55 H9         -7.3544   15.6149   -3.9346 H         1 noname      0.0000
     56 H10        -4.4681   14.9061   -2.9347 H         1 noname      0.0000
     57 H11        -5.0270   12.5403   -1.0968 H         1 noname      0.0000
     58 H12        -3.5343   13.5021   -1.0641 H         1 noname      0.0000
     59 H13         4.4116    9.1203   -3.9308 H         1 noname      0.0000
     60 H14         2.9545    9.7216   -4.0871 H         1 noname      0.0000
     61 H15         1.2740    8.5340   -2.5855 H         1 noname      0.0000
     62 H16         2.8629    2.4835   -3.9203 H         1 noname      0.0000
     63 H17        -0.2158    3.3049   -3.7772 H         1 noname      0.0000
     64 H18         0.8545    2.2764   -2.8710 H         1 noname      0.0000
     65 H19        -3.3283    6.0442   -4.4982 H         1 noname      0.0000
     66 H20        -2.8952    6.4206    0.7617 H         1 noname      0.0000
     67 H21        -1.9705    4.4820   -3.6606 H         1 noname      0.0000
     68 H22         0.2370    1.7033   -0.8960 H         1 noname      0.0000
     69 H23         1.2846    3.0230   -0.5546 H         1 noname      0.0000
     70 H24        -1.2552    2.4025    0.7739 H         1 noname      0.0000
     71 H25        -4.3661    8.0036   -1.9057 H         1 noname      0.0000
     72 H26        -1.0577    7.5405    0.0448 H         1 noname      0.0000
     73 C28         3.2648    9.6887    0.7761 C.2       1 noname      0.0000
     74 C29         4.6556    9.8902    0.9860 C.2       1 noname      0.0000
     75 C30         5.3824   10.6762    0.0654 C.2       1 noname      0.0000
     76 C31         4.7566   11.2426   -1.0783 C.2       1 noname      0.0000
     77 C32         3.3381   11.0162   -1.3219 C.2       1 noname      0.0000
     78 C33         5.5362   12.0537   -1.9824 C.2       1 noname      0.0000
     79 C34         4.9031   12.6150   -3.1144 C.2       1 noname      0.0000
     80 C35         3.5307   12.3794   -3.4012 C.2       1 noname      0.0000
     81 C36         2.7734   11.5673   -2.5160 C.2       1 noname      0.0000
     82 N13         6.6883   10.8925    0.2741 N.3       1 noname      0.0000
     83 C37         5.6807   13.4609   -4.0152 C.3       1 noname      0.0000
     84 H27         2.7430    9.1220    1.4447 H         1 noname      0.0000
     85 H28         5.1226    9.4726    1.7909 H         1 noname      0.0000
     86 H29         6.5273   12.2191   -1.8073 H         1 noname      0.0000
     87 H30         3.0970   12.7872   -4.2295 H         1 noname      0.0000
     88 H31         1.7974   11.3708   -2.7379 H         1 noname      0.0000
     89 H32         6.9643   10.4437    1.0885 H         1 noname      0.0000
     90 H33         6.8485   11.8454    0.3597 H         1 noname      0.0000
     91 H34         5.2358   14.4552   -4.0545 H         1 noname      0.0000
     92 H35         5.6819   13.0236   -5.0137 H         1 noname      0.0000
     93 H36         6.7050   13.5353   -3.6500 H         1 noname      0.0000
@<TRIPOS>BOND
1	1	41	1
2	1	77	2
3	1	73	1
4	2	6	1
5	2	47	1
6	2	48	1
7	2	49	1
8	3	4	1
9	3	7	1
10	3	50	1
11	3	51	1
12	4	5	1
13	4	52	1
14	4	53	1
15	5	6	1
16	5	54	1
17	5	55	1
18	6	7	1
19	7	8	1
20	7	56	1
21	8	9	1
22	8	57	1
23	8	58	1
24	9	44	1
25	10	14	1
26	10	59	1
27	10	60	1
28	11	12	2
29	12	13	1
30	12	16	1
31	13	14	1
32	13	61	1
33	14	15	2
34	15	17	1
35	16	17	2
36	16	20	1
37	17	18	1
38	18	19	2
39	19	20	1
40	19	62	1
41	20	21	1
42	21	31	1
43	21	63	1
44	21	64	1
45	22	27	1
46	22	65	1
47	23	34	2
48	24	34	2
49	25	26	2
50	25	29	1
51	25	66	1
52	26	27	1
53	26	35	1
54	27	28	2
55	28	30	1
56	28	67	1
57	29	30	2
58	29	34	1
59	30	31	1
60	31	32	1
61	32	33	1
62	32	68	1
63	32	69	1
64	33	34	1
65	33	70	1
66	35	43	1
67	35	71	1
68	36	41	2
69	36	42	1
70	37	43	2
71	37	44	1
72	38	44	2
73	38	45	1
74	39	40	1
75	40	41	1
76	40	45	2
77	42	46	2
78	42	72	1
79	43	46	1
80	45	46	1
81	73	74	2
82	73	84	1
83	74	75	1
84	74	85	1
85	75	76	2
86	75	82	1
87	76	77	1
88	76	78	1
89	77	81	1
90	78	79	2
91	78	86	1
92	79	80	1
93	79	83	1
94	80	81	2
95	80	87	1
96	81	88	1
97	82	89	1
98	82	90	1
99	83	91	1
100	83	92	1
101	83	93	1
@<TRIPOS>SUBSTRUCTURE
1	noname	1
