@<TRIPOS>MOLECULE
lig
89 97 1
SMALL
NO_CHARGES
@<TRIPOS>ATOM
      1 C27         2.6094   10.2565   -0.2908 C.2       1 noname      0.0000
      2 C1         -5.9786   13.6350   -4.3177 C.3       1 noname      0.0000
      3 C2         -5.6502   15.1819   -1.0585 C.3       1 noname      0.0000
      4 C3         -6.6708   16.0460   -1.8219 C.3       1 noname      0.0000
      5 C4         -7.2455   15.1099   -2.9031 C.3       1 noname      0.0000
      6 N1         -6.3171   13.9541   -2.9316 N.3       1 noname      0.0000
      7 C5         -5.0942   14.3380   -2.2030 C.3       1 noname      0.0000
      8 C6         -4.3172   13.1480   -1.6367 C.3       1 noname      0.0000
      9 O1         -3.7413   12.3745   -2.6914 O.3       1 noname      0.0000
     10 N2          3.5919    9.2152   -3.4822 N.3       1 noname      0.0000
     11 O2          0.0900    6.4320   -2.2666 O.2       1 noname      0.0000
     12 C7          1.2354    6.5510   -2.7528 C.2       1 noname      0.0000
     13 N3          1.8273    7.7811   -2.8676 N.3       1 noname      0.0000
     14 C8          3.0770    7.9810   -3.3973 C.2       1 noname      0.0000
     15 N4          3.7883    6.8982   -3.8374 N.2       1 noname      0.0000
     16 C9          1.9574    5.4182   -3.2003 C.2       1 noname      0.0000
     17 C10         3.2325    5.6534   -3.7301 C.2       1 noname      0.0000
     18 N5          3.7529    4.4706   -4.0849 N.2       1 noname      0.0000
     19 C11         2.8303    3.5277   -3.7944 C.2       1 noname      0.0000
     20 N6          1.7228    4.0908   -3.2614 N.3       1 noname      0.0000
     21 C12         0.5452    3.3159   -2.9623 C.3       1 noname      0.0000
     22 O3         -3.4834    6.5962   -3.7272 O.3       1 noname      0.0000
     23 O4         -1.2423    4.8461    2.4285 O.2       1 noname      0.0000
     24 O5          0.8272    5.3650    0.8903 O.2       1 noname      0.0000
     25 C13        -2.5321    6.0909   -0.1804 C.2       1 noname      0.0000
     26 C14        -3.0232    6.6862   -1.3705 C.2       1 noname      0.0000
     27 C15        -2.8433    6.0921   -2.6508 C.2       1 noname      0.0000
     28 C16        -1.9890    4.9684   -2.7926 C.2       1 noname      0.0000
     29 C17        -1.5821    5.0597   -0.3613 C.2       1 noname      0.0000
     30 C18        -1.2644    4.4909   -1.6441 C.2       1 noname      0.0000
     31 N7         -0.2059    3.5563   -1.7493 N.3       1 noname      0.0000
     32 C19         0.3016    2.7503   -0.6563 C.3       1 noname      0.0000
     33 N8         -0.2966    2.8735    0.6930 N.3       1 noname      0.0000
     34 S1         -0.5716    4.5823    0.9970 S         1 noname      0.0000
     35 N9         -3.5527    7.9333   -1.3049 N.3       1 noname      0.0000
     36 N10         0.6385    8.8022   -0.0266 N.2       1 noname      0.0000
     37 N11        -3.5462   10.1527   -1.8636 N.2       1 noname      0.0000
     38 N12        -1.7020   11.5868   -1.8599 N.2       1 noname      0.0000
     39 F1          0.7591   12.2259   -1.1176 F         1 noname      0.0000
     40 C20         0.3337   11.0117   -0.9240 C.2       1 noname      0.0000
     41 C21         1.1834   10.0158   -0.3777 C.2       1 noname      0.0000
     42 C22        -0.6562    8.4304   -0.2544 C.2       1 noname      0.0000
     43 C23        -2.8391    9.1233   -1.3290 C.2       1 noname      0.0000
     44 C24        -3.0001   11.3778   -2.1300 C.2       1 noname      0.0000
     45 C25        -0.9698   10.6467   -1.2460 C.2       1 noname      0.0000
     46 C26        -1.4925    9.3510   -0.9284 C.2       1 noname      0.0000
     47 H1         -5.2961   12.7854   -4.3386 H         1 noname      0.0000
     48 H2         -6.8873   13.3847   -4.8652 H         1 noname      0.0000
     49 H3         -5.5001   14.4970   -4.7825 H         1 noname      0.0000
     50 H4         -6.1751   14.5373   -0.3535 H         1 noname      0.0000
     51 H5         -4.8946   15.7567   -0.5229 H         1 noname      0.0000
     52 H6         -7.4681   16.3508   -1.1440 H         1 noname      0.0000
     53 H7         -6.1509   16.8741   -2.3037 H         1 noname      0.0000
     54 H8         -8.2370   14.7721   -2.6015 H         1 noname      0.0000
     55 H9         -7.3142   15.6204   -3.8637 H         1 noname      0.0000
     56 H10        -4.4302   14.9105   -2.8579 H         1 noname      0.0000
     57 H11        -4.9893   12.5207   -1.0512 H         1 noname      0.0000
     58 H12        -3.5005   13.4876   -0.9996 H         1 noname      0.0000
     59 H13         4.4761    9.1701   -3.8785 H         1 noname      0.0000
     60 H14         3.0175    9.7678   -4.0350 H         1 noname      0.0000
     61 H15         1.3340    8.5560   -2.5561 H         1 noname      0.0000
     62 H16         2.9524    2.5279   -3.9552 H         1 noname      0.0000
     63 H17        -0.1300    3.3361   -3.8178 H         1 noname      0.0000
     64 H18         0.9397    2.3008   -2.9186 H         1 noname      0.0000
     65 H19        -3.2491    6.0722   -4.5215 H         1 noname      0.0000
     66 H20        -2.8437    6.3872    0.7446 H         1 noname      0.0000
     67 H21        -1.8897    4.5052   -3.6959 H         1 noname      0.0000
     68 H22         0.3146    1.7017   -0.9537 H         1 noname      0.0000
     69 H23         1.3554    3.0212   -0.5913 H         1 noname      0.0000
     70 H24        -1.1886    2.3753    0.7170 H         1 noname      0.0000
     71 H25        -4.3073    7.9965   -1.9111 H         1 noname      0.0000
     72 H26        -1.0069    7.5224    0.0503 H         1 noname      0.0000
     73 C28         3.3037    9.6778    0.8290 C.2       1 noname      0.0000
     74 C29         4.6927    9.8819    1.0483 C.2       1 noname      0.0000
     75 C30         5.4211   10.6816    0.1408 C.2       1 noname      0.0000
     76 C31         4.7988   11.2594   -0.9992 C.2       1 noname      0.0000
     77 C32         3.3824   11.0306   -1.2525 C.2       1 noname      0.0000
     78 C33         5.5798   12.0841   -1.8896 C.2       1 noname      0.0000
     79 C34         4.9503   12.6565   -3.0180 C.2       1 noname      0.0000
     80 C35         3.5802   12.4193   -3.3144 C.2       1 noname      0.0000
     81 C36         2.8216   11.5939   -2.4428 C.2       1 noname      0.0000
     82 O6          5.3076    9.3189    2.1101 O.3       1 noname      0.0000
     83 H27         2.7807    9.1012    1.4881 H         1 noname      0.0000
     84 H28         6.4137   10.8481    0.3066 H         1 noname      0.0000
     85 H29         6.5695   12.2511   -1.7075 H         1 noname      0.0000
     86 H30         5.4945   13.2570   -3.6374 H         1 noname      0.0000
     87 H31         3.1491   12.8354   -4.1399 H         1 noname      0.0000
     88 H32         1.8475   11.3964   -2.6719 H         1 noname      0.0000
     89 H33         4.6562    8.8021    2.6287 H         1 noname      0.0000
@<TRIPOS>BOND
1	1	41	1
2	1	77	2
3	1	73	1
4	2	6	1
5	2	47	1
6	2	48	1
7	2	49	1
8	3	4	1
9	3	7	1
10	3	50	1
11	3	51	1
12	4	5	1
13	4	52	1
14	4	53	1
15	5	6	1
16	5	54	1
17	5	55	1
18	6	7	1
19	7	8	1
20	7	56	1
21	8	9	1
22	8	57	1
23	8	58	1
24	9	44	1
25	10	14	1
26	10	59	1
27	10	60	1
28	11	12	2
29	12	13	1
30	12	16	1
31	13	14	1
32	13	61	1
33	14	15	2
34	15	17	1
35	16	17	2
36	16	20	1
37	17	18	1
38	18	19	2
39	19	20	1
40	19	62	1
41	20	21	1
42	21	31	1
43	21	63	1
44	21	64	1
45	22	27	1
46	22	65	1
47	23	34	2
48	24	34	2
49	25	26	2
50	25	29	1
51	25	66	1
52	26	27	1
53	26	35	1
54	27	28	2
55	28	30	1
56	28	67	1
57	29	30	2
58	29	34	1
59	30	31	1
60	31	32	1
61	32	33	1
62	32	68	1
63	32	69	1
64	33	34	1
65	33	70	1
66	35	43	1
67	35	71	1
68	36	41	2
69	36	42	1
70	37	43	2
71	37	44	1
72	38	44	2
73	38	45	1
74	39	40	1
75	40	41	1
76	40	45	2
77	42	46	2
78	42	72	1
79	43	46	1
80	45	46	1
81	73	74	2
82	73	83	1
83	74	75	1
84	74	82	1
85	75	76	2
86	75	84	1
87	76	77	1
88	76	78	1
89	77	81	1
90	78	79	2
91	78	85	1
92	79	80	1
93	79	86	1
94	80	81	2
95	80	87	1
96	81	88	1
97	82	89	1
@<TRIPOS>SUBSTRUCTURE
1	noname	1
