@<TRIPOS>MOLECULE
lig
91 99 1
SMALL
NO_CHARGES
@<TRIPOS>ATOM
      1 C1         -0.4017    2.5775    0.1427 C.2       1 noname      0.0000
      2 C2         -1.7351    2.1594    0.1803 C.2       1 noname      0.0000
      3 C3          0.6144    1.6414   -0.0158 C.2       1 noname      0.0000
      4 C4         -1.0887   -0.2544   -0.0708 C.2       1 noname      0.0000
      5 C5          0.2819    0.2667   -0.1892 C.2       1 noname      0.0000
      6 C6         -2.0866    0.7862    0.0790 C.2       1 noname      0.0000
      7 C7         -3.9178   -0.8298    0.0216 C.2       1 noname      0.0000
      8 C8         -3.4891    0.5439    0.1277 C.2       1 noname      0.0000
      9 C9          1.2677   -4.8615    0.0926 C.2       1 noname      0.0000
     10 C10        -0.0591   -5.2922   -0.1500 C.2       1 noname      0.0000
     11 C11         0.7193   -7.5433    0.0548 C.2       1 noname      0.0000
     12 C12         2.2963   -5.7932    0.3280 C.2       1 noname      0.0000
     13 C13         1.4903   -3.5048    0.2236 C.2       1 noname      0.0000
     14 C14        -0.8263   -2.9179   -0.1052 C.2       1 noname      0.0000
     15 C15        -1.0992   -4.3368   -0.2713 C.2       1 noname      0.0000
     16 C16        -1.6365   -1.6792   -0.1188 C.2       1 noname      0.0000
     17 C17        -3.0673   -1.9732   -0.1075 C.2       1 noname      0.0000
     18 C18         1.3550   -0.3539   -0.5640 C.1       1 noname      0.0000
     19 C19         2.3766   -0.8936   -0.8722 C.1       1 noname      0.0000
     20 F1         -2.2940   -4.8246   -0.4459 F         1 noname      0.0000
     21 F2          1.8235    2.1973   -0.0601 F         1 noname      0.0000
     22 N1         -0.2665   -6.6412   -0.1753 N.2       1 noname      0.0000
     23 N2          1.9864   -7.1115    0.2808 N.2       1 noname      0.0000
     24 N3          0.4511   -2.6641    0.1804 N.2       1 noname      0.0000
     25 O1         -5.2461   -1.0556    0.0791 O.3       1 noname      0.0000
     26 N4          3.5251   -5.3508    0.7342 N.3       1 noname      0.0000
     27 S1          3.0952   -9.0177    4.0440 S         1 noname      0.0000
     28 N5          3.5263  -10.6645    3.5854 N.3       1 noname      0.0000
     29 C20         5.0011  -10.7085    3.4651 C.3       1 noname      0.0000
     30 N6          5.4446   -9.8566    2.3926 N.3       1 noname      0.0000
     31 C21         5.2656   -8.4878    2.4378 C.2       1 noname      0.0000
     32 C22         4.0963   -7.9572    3.0414 C.2       1 noname      0.0000
     33 C23         6.1048   -7.5780    1.7299 C.2       1 noname      0.0000
     34 C24         5.6081   -6.3308    1.3085 C.2       1 noname      0.0000
     35 C25         4.2783   -6.0195    1.6272 C.2       1 noname      0.0000
     36 C26         3.6436   -6.6815    2.6969 C.2       1 noname      0.0000
     37 O2          1.5295   -8.7645    3.8035 O.2       1 noname      0.0000
     38 O3          3.4616   -8.8196    5.5911 O.2       1 noname      0.0000
     39 O4          6.3274   -5.5577    0.4628 O.3       1 noname      0.0000
     40 C27         5.7736  -10.4124    1.1079 C.3       1 noname      0.0000
     41 N7          6.5514  -11.5908    0.9811 N.3       1 noname      0.0000
     42 C28         7.8553  -11.6520    0.6489 C.2       1 noname      0.0000
     43 N8          8.2391  -12.9253    0.4390 N.2       1 noname      0.0000
     44 C29         7.1483  -13.6739    0.6477 C.2       1 noname      0.0000
     45 C30         6.0879  -12.8499    1.0126 C.2       1 noname      0.0000
     46 N9          6.9816  -15.0129    0.5274 N.2       1 noname      0.0000
     47 C31         5.7620  -15.5626    0.7891 C.2       1 noname      0.0000
     48 N10         4.7101  -14.7816    1.1756 N.3       1 noname      0.0000
     49 C32         4.8400  -13.4388    1.2765 C.2       1 noname      0.0000
     50 O5          3.8170  -12.7860    1.5959 O.2       1 noname      0.0000
     51 N11         5.5735  -16.8804    0.6582 N.3       1 noname      0.0000
     52 O6          0.4449   -8.8544    0.1609 O.3       1 noname      0.0000
     53 H1         -0.1589    3.5826    0.2087 H         1 noname      0.0000
     54 H2         -2.4300    2.9045    0.2914 H         1 noname      0.0000
     55 H3         -4.2001    1.3014    0.2350 H         1 noname      0.0000
     56 H4          2.4445   -3.1513    0.3886 H         1 noname      0.0000
     57 H5         -3.5242   -2.8867   -0.1482 H         1 noname      0.0000
     58 H6          3.1495   -1.3424   -1.0935 H         1 noname      0.0000
     59 H7         -5.7191   -0.2017    0.1665 H         1 noname      0.0000
     60 H8          4.0629   -5.1315   -0.0427 H         1 noname      0.0000
     61 H9          3.2246  -11.3117    4.3164 H         1 noname      0.0000
     62 H10         5.3193  -11.7328    3.2708 H         1 noname      0.0000
     63 H11         5.3832  -10.3238    4.4106 H         1 noname      0.0000
     64 H12         7.0353   -7.8702    1.4212 H         1 noname      0.0000
     65 H13         2.7844   -6.3080    3.1011 H         1 noname      0.0000
     66 H14         7.1675   -6.0108    0.2405 H         1 noname      0.0000
     67 H15         4.8667  -10.5096    0.5111 H         1 noname      0.0000
     68 H16         6.3364   -9.5992    0.6497 H         1 noname      0.0000
     69 H17         8.4802  -10.8486    0.5485 H         1 noname      0.0000
     70 H18         3.8489  -15.1857    1.3736 H         1 noname      0.0000
     71 H19         6.4003  -17.2983    0.3708 H         1 noname      0.0000
     72 H20         4.8820  -17.0440   -0.0021 H         1 noname      0.0000
     73 C33         0.6693   -9.4138   -1.1265 C.3       1 noname      0.0000
     74 C34         0.2927  -10.8763   -0.9878 C.3       1 noname      0.0000
     75 N12         0.3213  -11.5210   -2.2954 N.3       1 noname      0.0000
     76 C35         0.3812  -12.9572   -1.9938 C.3       1 noname      0.0000
     77 C36         1.1884  -13.0892   -0.6976 C.3       1 noname      0.0000
     78 C37         1.3212  -11.6618   -0.1710 C.3       1 noname      0.0000
     79 C38        -0.9181  -11.2248   -3.0120 C.3       1 noname      0.0000
     80 H21         0.0094   -8.9357   -1.8505 H         1 noname      0.0000
     81 H22         1.6929   -9.2735   -1.4741 H         1 noname      0.0000
     82 H23        -0.7037  -10.9309   -0.5339 H         1 noname      0.0000
     83 H24        -0.6278  -13.3372   -1.8339 H         1 noname      0.0000
     84 H25         0.7757  -13.5408   -2.8256 H         1 noname      0.0000
     85 H26         0.6289  -13.6903    0.0192 H         1 noname      0.0000
     86 H27         2.1846  -13.5005   -0.8600 H         1 noname      0.0000
     87 H28         1.0443  -11.6362    0.8830 H         1 noname      0.0000
     88 H29         2.3213  -11.2858   -0.3865 H         1 noname      0.0000
     89 H30        -0.8967  -11.7068   -3.9895 H         1 noname      0.0000
     90 H31        -1.7669  -11.6001   -2.4404 H         1 noname      0.0000
     91 H32        -1.0147  -10.1467   -3.1405 H         1 noname      0.0000
@<TRIPOS>BOND
1	1	3	1
2	1	2	2
3	1	53	1
4	2	6	1
5	2	54	1
6	3	21	1
7	3	5	2
8	4	5	1
9	4	6	1
10	4	16	2
11	5	18	1
12	6	8	2
13	7	17	2
14	7	8	1
15	7	25	1
16	8	55	1
17	9	10	1
18	9	12	1
19	9	13	2
20	10	22	1
21	10	15	2
22	11	22	2
23	11	23	1
24	11	52	1
25	12	23	2
26	12	26	1
27	13	24	1
28	13	56	1
29	14	15	1
30	14	16	1
31	14	24	2
32	15	20	1
33	16	17	1
34	17	57	1
35	18	19	3
36	19	58	1
37	25	59	1
38	26	35	1
39	26	60	1
40	27	32	1
41	27	37	2
42	27	38	2
43	27	28	1
44	28	29	1
45	28	61	1
46	29	30	1
47	29	62	1
48	29	63	1
49	30	31	1
50	30	40	1
51	31	32	2
52	31	33	1
53	32	36	1
54	33	34	2
55	33	64	1
56	34	35	1
57	34	39	1
58	35	36	2
59	36	65	1
60	39	66	1
61	40	41	1
62	40	67	1
63	40	68	1
64	41	42	1
65	41	45	1
66	42	43	2
67	42	69	1
68	43	44	1
69	44	45	2
70	44	46	1
71	45	49	1
72	46	47	2
73	47	48	1
74	47	51	1
75	48	49	1
76	48	70	1
77	49	50	2
78	51	71	1
79	51	72	1
80	52	73	1
81	73	74	1
82	73	80	1
83	73	81	1
84	74	78	1
85	74	75	1
86	74	82	1
87	75	76	1
88	75	79	1
89	76	77	1
90	76	83	1
91	76	84	1
92	77	78	1
93	77	85	1
94	77	86	1
95	78	87	1
96	78	88	1
97	79	89	1
98	79	90	1
99	79	91	1
@<TRIPOS>SUBSTRUCTURE
1	noname	1
