@<TRIPOS>MOLECULE
lig
87 94 1
SMALL
NO_CHARGES
@<TRIPOS>ATOM
      1 C1         -1.9866   -0.4463    5.7610 C.2       1 noname      0.0000
      2 C2         -3.1796   -1.1007    6.0526 C.2       1 noname      0.0000
      3 C3         -1.0668   -1.0106    4.8737 C.2       1 noname      0.0000
      4 C4         -2.5001   -3.0568    4.4471 C.2       1 noname      0.0000
      5 C5         -1.2978   -2.2683    4.2259 C.2       1 noname      0.0000
      6 C6         -3.4195   -2.3788    5.4040 C.2       1 noname      0.0000
      7 C7         -5.0228   -4.1892    5.2295 C.2       1 noname      0.0000
      8 C8         -4.6573   -2.9636    5.7665 C.2       1 noname      0.0000
      9 C9         -0.5659   -6.6142    0.8785 C.2       1 noname      0.0000
     10 C10        -1.8208   -7.1093    1.3050 C.2       1 noname      0.0000
     11 C11        -1.5639   -8.9387   -0.1630 C.2       1 noname      0.0000
     12 C12         0.1567   -7.3071   -0.1396 C.2       1 noname      0.0000
     13 C13        -0.1284   -5.4571    1.5514 C.2       1 noname      0.0000
     14 C14        -2.1779   -5.2379    2.8954 C.2       1 noname      0.0000
     15 C15        -2.6172   -6.4562    2.2712 C.2       1 noname      0.0000
     16 C16        -2.9054   -4.3603    3.8845 C.2       1 noname      0.0000
     17 C17        -4.1798   -4.8472    4.3390 C.2       1 noname      0.0000
     18 C18        -0.2925   -2.5346    3.4645 C.1       1 noname      0.0000
     19 C19         0.6681   -2.7225    2.7859 C.1       1 noname      0.0000
     20 F1         -3.7531   -7.0572    2.5360 F         1 noname      0.0000
     21 F2          0.0183   -0.2516    4.7126 F         1 noname      0.0000
     22 N1         -2.2725   -8.2622    0.7707 N.2       1 noname      0.0000
     23 N2         -0.3852   -8.4428   -0.6367 N.2       1 noname      0.0000
     24 N3         -0.9301   -4.8709    2.4758 N.2       1 noname      0.0000
     25 O1         -6.2166   -4.7430    5.5866 O.3       1 noname      0.0000
     26 N4          1.4213   -6.9333   -0.5329 N.3       1 noname      0.0000
     27 S1          2.7872  -10.8645    2.2499 S         1 noname      0.0000
     28 N5          2.8154  -10.3050    3.9332 N.3       1 noname      0.0000
     29 C20         3.6208   -9.0671    4.1015 C.3       1 noname      0.0000
     30 N6          4.6736   -8.9034    3.1236 N.3       1 noname      0.0000
     31 C21         4.2524   -8.6302    1.8462 C.2       1 noname      0.0000
     32 C22         3.2428   -9.4465    1.2967 C.2       1 noname      0.0000
     33 C23         4.6003   -7.4444    1.1578 C.2       1 noname      0.0000
     34 C24         3.7341   -6.9259    0.1710 C.2       1 noname      0.0000
     35 C25         2.5410   -7.6179   -0.1288 C.2       1 noname      0.0000
     36 C26         2.4566   -8.9755    0.2488 C.2       1 noname      0.0000
     37 O2          1.3298  -11.4273    1.8976 O.2       1 noname      0.0000
     38 O3          3.8976  -12.0144    2.1333 O.2       1 noname      0.0000
     39 O4          3.9900   -5.7127   -0.3652 O.3       1 noname      0.0000
     40 C27         6.0579   -8.9633    3.4817 C.3       1 noname      0.0000
     41 N7          6.5998  -10.2108    3.9509 N.3       1 noname      0.0000
     42 C28         7.4439  -11.0033    3.2485 C.2       1 noname      0.0000
     43 N8          7.9320  -12.0110    3.9959 N.2       1 noname      0.0000
     44 C29         7.3664  -11.8662    5.1996 C.2       1 noname      0.0000
     45 C30         6.4988  -10.7747    5.1764 C.2       1 noname      0.0000
     46 N9          7.5586  -12.6015    6.3228 N.2       1 noname      0.0000
     47 C31         6.8553  -12.2962    7.4492 C.2       1 noname      0.0000
     48 N10         5.9711  -11.2651    7.4612 N.3       1 noname      0.0000
     49 C32         5.7925  -10.4855    6.3690 C.2       1 noname      0.0000
     50 O5          5.0215   -9.5221    6.5356 O.2       1 noname      0.0000
     51 N11         7.0122  -13.0157    8.5653 N.3       1 noname      0.0000
     52 O6         -2.0848  -10.0962   -0.6134 O.3       1 noname      0.0000
     53 H1         -1.7599    0.4557    6.1867 H         1 noname      0.0000
     54 H2         -3.8250   -0.6511    6.7056 H         1 noname      0.0000
     55 H3         -5.3130   -2.5013    6.4337 H         1 noname      0.0000
     56 H4          0.7815   -5.0348    1.3428 H         1 noname      0.0000
     57 H5         -4.5976   -5.7234    4.0668 H         1 noname      0.0000
     58 H6          1.3831   -2.9268    2.2455 H         1 noname      0.0000
     59 H7         -6.6770   -4.1491    6.2157 H         1 noname      0.0000
     60 H8          1.5446   -5.9855   -0.3672 H         1 noname      0.0000
     61 H9          1.8592  -10.1353    4.2518 H         1 noname      0.0000
     62 H10         2.9624   -8.1989    4.0753 H         1 noname      0.0000
     63 H11         4.0337   -9.1455    5.1073 H         1 noname      0.0000
     64 H12         5.4122   -6.9009    1.4498 H         1 noname      0.0000
     65 H13         1.7488   -9.5909   -0.1320 H         1 noname      0.0000
     66 H14         4.8013   -5.3411    0.0399 H         1 noname      0.0000
     67 H15         6.2811   -8.1763    4.2021 H         1 noname      0.0000
     68 H16         6.5596   -8.7974    2.5284 H         1 noname      0.0000
     69 H17         7.7013  -10.8753    2.2679 H         1 noname      0.0000
     70 H18         5.4680  -11.0542    8.2677 H         1 noname      0.0000
     71 H19         7.6619  -13.7186    8.4082 H         1 noname      0.0000
     72 H20         6.1629  -13.4108    8.8173 H         1 noname      0.0000
     73 C33        -1.5957  -11.1357    0.2400 C.3       1 noname      0.0000
     74 C34        -2.1558  -12.4819   -0.2237 C.3       1 noname      0.0000
     75 N12        -1.6562  -13.5439    0.6482 N.3       1 noname      0.0000
     76 C35        -2.1913  -14.8302    0.2051 C.3       1 noname      0.0000
     77 C36        -2.0818  -13.2864    2.0229 C.3       1 noname      0.0000
     78 H21        -1.9131  -10.9437    1.2649 H         1 noname      0.0000
     79 H22        -0.5069  -11.1603    0.1953 H         1 noname      0.0000
     80 H23        -3.2446  -12.4573   -0.1790 H         1 noname      0.0000
     81 H24        -1.8384  -12.6739   -1.2486 H         1 noname      0.0000
     82 H25        -1.8188  -15.6220    0.8551 H         1 noname      0.0000
     83 H26        -3.2801  -14.8056    0.2498 H         1 noname      0.0000
     84 H27        -1.8739  -15.0222   -0.8198 H         1 noname      0.0000
     85 H28        -1.7094  -14.0781    2.6729 H         1 noname      0.0000
     86 H29        -3.1706  -13.2617    2.0676 H         1 noname      0.0000
     87 H30        -1.6829  -12.3273    2.3532 H         1 noname      0.0000
@<TRIPOS>BOND
1	1	3	1
2	1	2	2
3	1	53	1
4	2	6	1
5	2	54	1
6	3	21	1
7	3	5	2
8	4	5	1
9	4	6	1
10	4	16	2
11	5	18	1
12	6	8	2
13	7	17	2
14	7	8	1
15	7	25	1
16	8	55	1
17	9	10	1
18	9	12	1
19	9	13	2
20	10	22	1
21	10	15	2
22	11	22	2
23	11	23	1
24	11	52	1
25	12	23	2
26	12	26	1
27	13	24	1
28	13	56	1
29	14	15	1
30	14	16	1
31	14	24	2
32	15	20	1
33	16	17	1
34	17	57	1
35	18	19	3
36	19	58	1
37	25	59	1
38	26	35	1
39	26	60	1
40	27	32	1
41	27	37	2
42	27	38	2
43	27	28	1
44	28	29	1
45	28	61	1
46	29	30	1
47	29	62	1
48	29	63	1
49	30	31	1
50	30	40	1
51	31	32	2
52	31	33	1
53	32	36	1
54	33	34	2
55	33	64	1
56	34	35	1
57	34	39	1
58	35	36	2
59	36	65	1
60	39	66	1
61	40	41	1
62	40	67	1
63	40	68	1
64	41	42	1
65	41	45	1
66	42	43	2
67	42	69	1
68	43	44	1
69	44	45	2
70	44	46	1
71	45	49	1
72	46	47	2
73	47	48	1
74	47	51	1
75	48	49	1
76	48	70	1
77	49	50	2
78	51	71	1
79	51	72	1
80	52	73	1
81	73	74	1
82	73	78	1
83	73	79	1
84	74	75	1
85	74	80	1
86	74	81	1
87	75	76	1
88	75	77	1
89	76	82	1
90	76	83	1
91	76	84	1
92	77	85	1
93	77	86	1
94	77	87	1
@<TRIPOS>SUBSTRUCTURE
1	noname	1
