@<TRIPOS>MOLECULE
lig
88 96 1
SMALL
NO_CHARGES
@<TRIPOS>ATOM
      1 C27         2.5500   10.2199   -0.2563 C.2       1 noname      0.0000
      2 C1         -5.9485   13.6876   -4.3958 C.3       1 noname      0.0000
      3 C2         -5.6542   15.2203   -1.1267 C.3       1 noname      0.0000
      4 C3         -6.6560   16.0960   -1.9018 C.3       1 noname      0.0000
      5 C4         -7.2230   15.1686   -2.9946 C.3       1 noname      0.0000
      6 N1         -6.3043   14.0049   -3.0138 N.3       1 noname      0.0000
      7 C5         -5.0889   14.3755   -2.2660 C.3       1 noname      0.0000
      8 C6         -4.3307   13.1768   -1.6927 C.3       1 noname      0.0000
      9 O1         -3.7462   12.4019   -2.7417 O.3       1 noname      0.0000
     10 N2          3.5699    9.1811   -3.4367 N.3       1 noname      0.0000
     11 O2          0.0265    6.4246   -2.2824 O.2       1 noname      0.0000
     12 C7          1.1799    6.5352   -2.7514 C.2       1 noname      0.0000
     13 N3          1.7841    7.7604   -2.8531 N.3       1 noname      0.0000
     14 C8          3.0430    7.9511   -3.3638 C.2       1 noname      0.0000
     15 N4          3.7513    6.8637   -3.7974 N.2       1 noname      0.0000
     16 C9          1.8983    5.3977   -3.1924 C.2       1 noname      0.0000
     17 C10         3.1831    5.6235   -3.7027 C.2       1 noname      0.0000
     18 N5          3.6983    4.4374   -4.0541 N.2       1 noname      0.0000
     19 C11         2.7633    3.5017   -3.7805 C.2       1 noname      0.0000
     20 N6          1.6531    4.0725   -3.2617 N.3       1 noname      0.0000
     21 C12         0.4646    3.3070   -2.9826 C.3       1 noname      0.0000
     22 O3         -3.5236    6.6252   -3.7943 O.3       1 noname      0.0000
     23 O4         -1.3882    4.8341    2.3870 O.2       1 noname      0.0000
     24 O5          0.7081    5.3402    0.8811 O.2       1 noname      0.0000
     25 C13        -2.6288    6.0992   -0.2359 C.2       1 noname      0.0000
     26 C14        -3.0972    6.7029   -1.4309 C.2       1 noname      0.0000
     27 C15        -2.9037    6.1118   -2.7105 C.2       1 noname      0.0000
     28 C16        -2.0574    4.9811   -2.8439 C.2       1 noname      0.0000
     29 C17        -1.6853    5.0604   -0.4066 C.2       1 noname      0.0000
     30 C18        -1.3538    4.4933   -1.6867 C.2       1 noname      0.0000
     31 N7         -0.3021    3.5498   -1.7798 N.3       1 noname      0.0000
     32 C19         0.1824    2.7356   -0.6825 C.3       1 noname      0.0000
     33 N8         -0.4344    2.8593    0.6584 N.3       1 noname      0.0000
     34 S1         -0.6989    4.5694    0.9646 S         1 noname      0.0000
     35 N9         -3.6167    7.9544   -1.3686 N.3       1 noname      0.0000
     36 N10         0.5628    8.7821   -0.0262 N.2       1 noname      0.0000
     37 N11        -3.5827   10.1756   -1.9191 N.2       1 noname      0.0000
     38 N12        -1.7262   11.5934   -1.8834 N.2       1 noname      0.0000
     39 F1          0.7292   12.2083   -1.1029 F         1 noname      0.0000
     40 C20         0.2905   10.9972   -0.9199 C.2       1 noname      0.0000
     41 C21         1.1234    9.9920   -0.3648 C.2       1 noname      0.0000
     42 C22        -0.7316    8.4224   -0.2741 C.2       1 noname      0.0000
     43 C23        -2.8925    9.1382   -1.3779 C.2       1 noname      0.0000
     44 C24        -3.0221   11.3967   -2.1731 C.2       1 noname      0.0000
     45 C25        -1.0114   10.6448   -1.2623 C.2       1 noname      0.0000
     46 C26        -1.5499    9.3526   -0.9569 C.2       1 noname      0.0000
     47 H1         -5.2731   12.8321   -4.4099 H         1 noname      0.0000
     48 H2         -6.8512   13.4472   -4.9574 H         1 noname      0.0000
     49 H3         -5.4557   14.5470   -4.8506 H         1 noname      0.0000
     50 H4         -6.1950   14.5778   -0.4318 H         1 noname      0.0000
     51 H5         -4.9015   15.7865   -0.5781 H         1 noname      0.0000
     52 H6         -7.4604   16.4053   -1.2345 H         1 noname      0.0000
     53 H7         -6.1219   16.9211   -2.3729 H         1 noname      0.0000
     54 H8         -8.2217   14.8385   -2.7088 H         1 noname      0.0000
     55 H9         -7.2732   15.6830   -3.9543 H         1 noname      0.0000
     56 H10        -4.4105   14.9444   -2.9090 H         1 noname      0.0000
     57 H11        -5.0168   12.5533   -1.1194 H         1 noname      0.0000
     58 H12        -3.5205   13.5069   -1.0425 H         1 noname      0.0000
     59 H13         4.4593    9.1296   -3.8203 H         1 noname      0.0000
     60 H14         3.0085    9.7406   -3.9959 H         1 noname      0.0000
     61 H15         1.2931    8.5386   -2.5461 H         1 noname      0.0000
     62 H16         2.8791    2.5014   -3.9431 H         1 noname      0.0000
     63 H17        -0.1978    3.3361   -3.8477 H         1 noname      0.0000
     64 H18         0.8495    2.2883   -2.9367 H         1 noname      0.0000
     65 H19        -3.2824    6.1019   -4.5871 H         1 noname      0.0000
     66 H20        -2.9513    6.3950    0.6855 H         1 noname      0.0000
     67 H21        -1.9489    4.5202   -3.7473 H         1 noname      0.0000
     68 H22         0.1905    1.6880   -0.9834 H         1 noname      0.0000
     69 H23         1.2374    2.9970   -0.6011 H         1 noname      0.0000
     70 H24        -1.3310    2.3689    0.6676 H         1 noname      0.0000
     71 H25        -4.3618    8.0263   -1.9854 H         1 noname      0.0000
     72 H26        -1.0947    7.5165    0.0222 H         1 noname      0.0000
     73 C28         3.2228    9.6313    0.8715 C.2       1 noname      0.0000
     74 C29         4.6101    9.8224    1.1117 C.2       1 noname      0.0000
     75 C30         5.3587   10.6188    0.2178 C.2       1 noname      0.0000
     76 C31         4.7582   11.2060   -0.9291 C.2       1 noname      0.0000
     77 C32         3.3437   10.9905   -1.2039 C.2       1 noname      0.0000
     78 C33         5.5593   12.0269   -1.8050 C.2       1 noname      0.0000
     79 C34         4.9514   12.6087   -2.9404 C.2       1 noname      0.0000
     80 C35         3.5837   12.3846   -3.2576 C.2       1 noname      0.0000
     81 C36         2.8053   11.5628   -2.4001 C.2       1 noname      0.0000
     82 H27         2.6852    9.0570    1.5208 H         1 noname      0.0000
     83 H28         5.0592    9.3901    1.9191 H         1 noname      0.0000
     84 H29         6.3501   10.7760    0.3987 H         1 noname      0.0000
     85 H30         6.5476   12.1845   -1.6079 H         1 noname      0.0000
     86 H31         5.5097   13.2066   -3.5497 H         1 noname      0.0000
     87 H32         3.1684   12.8073   -4.0878 H         1 noname      0.0000
     88 H33         1.8329   11.3747   -2.6441 H         1 noname      0.0000
@<TRIPOS>BOND
1	1	41	1
2	1	77	2
3	1	73	1
4	2	6	1
5	2	47	1
6	2	48	1
7	2	49	1
8	3	4	1
9	3	7	1
10	3	50	1
11	3	51	1
12	4	5	1
13	4	52	1
14	4	53	1
15	5	6	1
16	5	54	1
17	5	55	1
18	6	7	1
19	7	8	1
20	7	56	1
21	8	9	1
22	8	57	1
23	8	58	1
24	9	44	1
25	10	14	1
26	10	59	1
27	10	60	1
28	11	12	2
29	12	13	1
30	12	16	1
31	13	14	1
32	13	61	1
33	14	15	2
34	15	17	1
35	16	17	2
36	16	20	1
37	17	18	1
38	18	19	2
39	19	20	1
40	19	62	1
41	20	21	1
42	21	31	1
43	21	63	1
44	21	64	1
45	22	27	1
46	22	65	1
47	23	34	2
48	24	34	2
49	25	26	2
50	25	29	1
51	25	66	1
52	26	27	1
53	26	35	1
54	27	28	2
55	28	30	1
56	28	67	1
57	29	30	2
58	29	34	1
59	30	31	1
60	31	32	1
61	32	33	1
62	32	68	1
63	32	69	1
64	33	34	1
65	33	70	1
66	35	43	1
67	35	71	1
68	36	41	2
69	36	42	1
70	37	43	2
71	37	44	1
72	38	44	2
73	38	45	1
74	39	40	1
75	40	41	1
76	40	45	2
77	42	46	2
78	42	72	1
79	43	46	1
80	45	46	1
81	73	74	2
82	73	82	1
83	74	75	1
84	74	83	1
85	75	76	2
86	75	84	1
87	76	77	1
88	76	78	1
89	77	81	1
90	78	79	2
91	78	85	1
92	79	80	1
93	79	86	1
94	80	81	2
95	80	87	1
96	81	88	1
@<TRIPOS>SUBSTRUCTURE
1	noname	1
