@<TRIPOS>MOLECULE
lig
80 87 1
SMALL
NO_CHARGES
@<TRIPOS>ATOM
      1 C1         -1.9795   -0.3625    5.7152 C.2       1 noname      0.0000
      2 C2         -3.1664   -1.0174    6.0294 C.2       1 noname      0.0000
      3 C3         -1.0655   -0.9375    4.8289 C.2       1 noname      0.0000
      4 C4         -2.4926   -2.9975    4.4511 C.2       1 noname      0.0000
      5 C5         -1.2964   -2.2072    4.2049 C.2       1 noname      0.0000
      6 C6         -3.4062   -2.3076    5.4050 C.2       1 noname      0.0000
      7 C7         -5.0021   -4.1284    5.2770 C.2       1 noname      0.0000
      8 C8         -4.6376   -2.8920    5.7894 C.2       1 noname      0.0000
      9 C9         -0.5751   -6.6062    0.9254 C.2       1 noname      0.0000
     10 C10        -1.8234   -7.0999    1.3722 C.2       1 noname      0.0000
     11 C11        -1.5714   -8.9529   -0.0667 C.2       1 noname      0.0000
     12 C12         0.1412   -7.3130   -0.0877 C.2       1 noname      0.0000
     13 C13        -0.1369   -5.4356    1.5741 C.2       1 noname      0.0000
     14 C14        -2.1745   -5.2033    2.9338 C.2       1 noname      0.0000
     15 C15        -2.6137   -6.4341    2.3348 C.2       1 noname      0.0000
     16 C16        -2.8968   -4.3124    3.9148 C.2       1 noname      0.0000
     17 C17        -4.1644   -4.7975    4.3898 C.2       1 noname      0.0000
     18 C18        -0.2971   -2.4817    3.4385 C.1       1 noname      0.0000
     19 C19         0.6578   -2.6765    2.7540 C.1       1 noname      0.0000
     20 F1         -3.7441   -7.0359    2.6207 F         1 noname      0.0000
     21 F2          0.0143   -0.1762    4.6444 F         1 noname      0.0000
     22 N1         -2.2744   -8.2640    0.8621 N.2       1 noname      0.0000
     23 N2         -0.3998   -8.4595   -0.5602 N.2       1 noname      0.0000
     24 N3         -0.9326   -4.8375    2.4961 N.2       1 noname      0.0000
     25 O1         -6.1897   -4.6816    5.6550 O.3       1 noname      0.0000
     26 N4          1.4002   -6.9399   -0.4995 N.3       1 noname      0.0000
     27 S1          2.8119  -10.8164    2.3368 S         1 noname      0.0000
     28 N5          2.8534  -10.2280    4.0099 N.3       1 noname      0.0000
     29 C20         3.6543   -8.9836    4.1493 C.3       1 noname      0.0000
     30 N6          4.6969   -8.8316    3.1586 N.3       1 noname      0.0000
     31 C21         4.2621   -8.5823    1.8809 C.2       1 noname      0.0000
     32 C22         3.2514   -9.4127    1.3551 C.2       1 noname      0.0000
     33 C23         4.5976   -7.4068    1.1690 C.2       1 noname      0.0000
     34 C24         3.7195   -6.9094    0.1819 C.2       1 noname      0.0000
     35 C25         2.5270   -7.6122   -0.0946 C.2       1 noname      0.0000
     36 C26         2.4529   -8.9635    0.3070 C.2       1 noname      0.0000
     37 O2          1.3541  -11.3921    2.0081 O.2       1 noname      0.0000
     38 O3          3.9268  -11.9628    2.2291 O.2       1 noname      0.0000
     39 O4          3.9642   -5.7044   -0.3774 O.3       1 noname      0.0000
     40 C27         6.0848   -8.8788    3.5044 C.3       1 noname      0.0000
     41 N7          6.6374  -10.1154    3.9896 N.3       1 noname      0.0000
     42 C28         7.4786  -10.9159    3.2927 C.2       1 noname      0.0000
     43 N8          7.9788  -11.9082    4.0524 N.2       1 noname      0.0000
     44 C29         7.4239  -11.7455    5.2589 C.2       1 noname      0.0000
     45 C30         6.5508  -10.6588    5.2254 C.2       1 noname      0.0000
     46 N9          7.6305  -12.4606    6.3926 N.2       1 noname      0.0000
     47 C31         6.9365  -12.1394    7.5203 C.2       1 noname      0.0000
     48 N10         6.0474  -11.1125    7.5232 N.3       1 noname      0.0000
     49 C32         5.8545  -10.3525    6.4197 C.2       1 noname      0.0000
     50 O5          5.0804   -9.3902    6.5772 O.2       1 noname      0.0000
     51 N11         7.1075  -12.8389    8.6470 N.3       1 noname      0.0000
     52 O6         -2.0909  -10.1204   -0.4923 O.3       1 noname      0.0000
     53 H1         -1.7532    0.5478    6.1232 H         1 noname      0.0000
     54 H2         -3.8078   -0.5598    6.6809 H         1 noname      0.0000
     55 H3         -5.2891   -2.4215    6.4549 H         1 noname      0.0000
     56 H4          0.7689   -5.0127    1.3496 H         1 noname      0.0000
     57 H5         -4.5805   -5.6802    4.1366 H         1 noname      0.0000
     58 H6          1.3687   -2.8867    2.2104 H         1 noname      0.0000
     59 H7         -6.6471   -4.0793    6.2782 H         1 noname      0.0000
     60 H8          1.5203   -5.9889   -0.3512 H         1 noname      0.0000
     61 H9          1.8995  -10.0574    4.3347 H         1 noname      0.0000
     62 H10         2.9913   -8.1190    4.1146 H         1 noname      0.0000
     63 H11         4.0771   -9.0428    5.1522 H         1 noname      0.0000
     64 H12         5.4096   -6.8545    1.4438 H         1 noname      0.0000
     65 H13         1.7446   -9.5887   -0.0564 H         1 noname      0.0000
     66 H14         4.7776   -5.3221    0.0134 H         1 noname      0.0000
     67 H15         6.3110   -8.0785    4.2090 H         1 noname      0.0000
     68 H16         6.5765   -8.7269    2.5435 H         1 noname      0.0000
     69 H17         7.7259  -10.8034    2.3076 H         1 noname      0.0000
     70 H18         5.5510  -10.8902    8.3308 H         1 noname      0.0000
     71 H19         7.7592  -13.5413    8.4956 H         1 noname      0.0000
     72 H20         6.2627  -13.2337    8.9139 H         1 noname      0.0000
     73 C33        -1.5886  -11.1428    0.3740 C.3       1 noname      0.0000
     74 C34        -2.1209  -12.4374   -0.0413 C.2       1 noname      0.0000
     75 N12        -1.7835  -13.5470    0.6299 N.3       1 noname      0.0000
     76 O7         -2.8912  -12.5106   -1.0229 O.2       1 noname      0.0000
     77 H21        -1.8971  -10.9348    1.3985 H         1 noname      0.0000
     78 H22        -0.5002  -11.1630    0.3193 H         1 noname      0.0000
     79 H23        -2.1372  -14.4071    0.3541 H         1 noname      0.0000
     80 H24        -1.1857  -13.4902    1.3917 H         1 noname      0.0000
@<TRIPOS>BOND
1	1	3	1
2	1	2	2
3	1	53	1
4	2	6	1
5	2	54	1
6	3	21	1
7	3	5	2
8	4	5	1
9	4	6	1
10	4	16	2
11	5	18	1
12	6	8	2
13	7	17	2
14	7	8	1
15	7	25	1
16	8	55	1
17	9	10	1
18	9	12	1
19	9	13	2
20	10	22	1
21	10	15	2
22	11	22	2
23	11	23	1
24	11	52	1
25	12	23	2
26	12	26	1
27	13	24	1
28	13	56	1
29	14	15	1
30	14	16	1
31	14	24	2
32	15	20	1
33	16	17	1
34	17	57	1
35	18	19	3
36	19	58	1
37	25	59	1
38	26	35	1
39	26	60	1
40	27	32	1
41	27	37	2
42	27	38	2
43	27	28	1
44	28	29	1
45	28	61	1
46	29	30	1
47	29	62	1
48	29	63	1
49	30	31	1
50	30	40	1
51	31	32	2
52	31	33	1
53	32	36	1
54	33	34	2
55	33	64	1
56	34	35	1
57	34	39	1
58	35	36	2
59	36	65	1
60	39	66	1
61	40	41	1
62	40	67	1
63	40	68	1
64	41	42	1
65	41	45	1
66	42	43	2
67	42	69	1
68	43	44	1
69	44	45	2
70	44	46	1
71	45	49	1
72	46	47	2
73	47	48	1
74	47	51	1
75	48	49	1
76	48	70	1
77	49	50	2
78	51	71	1
79	51	72	1
80	52	73	1
81	73	74	1
82	73	77	1
83	73	78	1
84	74	76	2
85	74	75	1
86	75	79	1
87	75	80	1
@<TRIPOS>SUBSTRUCTURE
1	noname	1
