@<TRIPOS>MOLECULE
lig
95 104 1
SMALL
NO_CHARGES
@<TRIPOS>ATOM
      1 C1         -3.0638    0.8312   -4.6954 C.2       1 noname      0.0000
      2 C2         -4.2530    0.3824   -4.1258 C.2       1 noname      0.0000
      3 C3         -1.9382    0.0179   -4.6813 C.2       1 noname      0.0000
      4 C4         -3.2004   -1.7902   -3.4202 C.2       1 noname      0.0000
      5 C5         -2.0168   -1.2923   -4.1364 C.2       1 noname      0.0000
      6 C6         -4.3312   -0.8862   -3.4974 C.2       1 noname      0.0000
      7 C7         -5.8152   -2.4472   -2.3274 C.2       1 noname      0.0000
      8 C8         -5.6072   -1.2212   -2.9636 C.2       1 noname      0.0000
      9 C9          0.0194   -5.5397   -1.7269 C.2       1 noname      0.0000
     10 C10        -1.2127   -6.1485   -1.3910 C.2       1 noname      0.0000
     11 C11        -0.0169   -7.9150   -0.3404 C.2       1 noname      0.0000
     12 C12         1.2218   -6.1495   -1.3601 C.2       1 noname      0.0000
     13 C13        -0.0014   -4.2713   -2.2999 C.2       1 noname      0.0000
     14 C14        -2.4275   -4.0347   -2.3041 C.2       1 noname      0.0000
     15 C15        -2.4173   -5.3854   -1.7069 C.2       1 noname      0.0000
     16 C16        -3.4266   -3.0534   -2.6777 C.2       1 noname      0.0000
     17 C17        -0.3448  -10.0869   -0.4159 C.3       1 noname      0.0000
     18 C18        -4.7441   -3.3316   -2.1996 C.2       1 noname      0.0000
     19 C19        -0.0204  -11.4101    0.2774 C.3       1 noname      0.0000
     20 C20        -0.1543  -12.4981   -0.7964 C.3       1 noname      0.0000
     21 C21         1.2736  -12.6507   -1.3228 C.3       1 noname      0.0000
     22 C22         2.1830  -12.2090   -0.1650 C.3       1 noname      0.0000
     23 C23         1.3251  -12.1814    2.0644 C.3       1 noname      0.0000
     24 C24        -0.0747  -11.9768    2.6557 C.3       1 noname      0.0000
     25 C25        -0.9725  -11.6312    1.4634 C.3       1 noname      0.0000
     26 C26        -0.9273   -1.9279   -4.4656 C.1       1 noname      0.0000
     27 C27         0.1078   -2.4560   -4.7373 C.1       1 noname      0.0000
     28 F1         -3.5357   -5.9870   -1.3603 F         1 noname      0.0000
     29 F2          1.4590  -11.8427   -2.4181 F         1 noname      0.0000
     30 F3         -0.8984    0.5756   -5.2737 F         1 noname      0.0000
     31 N1         -1.1834   -7.3217   -0.7086 N.2       1 noname      0.0000
     32 N2          1.1515   -7.3387   -0.6830 N.2       1 noname      0.0000
     33 N3         -1.1713   -3.6353   -2.4818 N.2       1 noname      0.0000
     34 N4          1.3667  -11.4360    0.7928 N.3       1 noname      0.0000
     35 O1          0.0077   -9.0106    0.4344 O.3       1 noname      0.0000
     36 O2         -7.0265   -2.7476   -1.8161 O.3       1 noname      0.0000
     37 N5          2.4142   -5.4925   -1.5373 N.3       1 noname      0.0000
     38 H1         -3.0365    1.7612   -5.1611 H         1 noname      0.0000
     39 H2         -5.0626    1.0096   -4.1809 H         1 noname      0.0000
     40 H3         -6.4131   -0.5699   -3.0283 H         1 noname      0.0000
     41 H4          0.8695   -3.8061   -2.5868 H         1 noname      0.0000
     42 H5         -1.4119  -10.0431   -0.6341 H         1 noname      0.0000
     43 H6          0.2208   -9.9773   -1.3411 H         1 noname      0.0000
     44 H7         -4.9709   -4.1948   -1.7088 H         1 noname      0.0000
     45 H8         -0.8006  -12.1401   -1.5978 H         1 noname      0.0000
     46 H9         -0.4759  -13.4314   -0.3341 H         1 noname      0.0000
     47 H10         1.4651  -13.6875   -1.5875 H         1 noname      0.0000
     48 H11         2.5910  -13.0888    0.3325 H         1 noname      0.0000
     49 H12         3.0154  -11.6205   -0.5507 H         1 noname      0.0000
     50 H13         1.4856  -13.2417    1.8693 H         1 noname      0.0000
     51 H14         2.1343  -11.8957    2.7364 H         1 noname      0.0000
     52 H15        -0.4165  -12.9065    3.1105 H         1 noname      0.0000
     53 H16        -0.0509  -11.1289    3.3404 H         1 noname      0.0000
     54 H17        -1.6312  -12.4727    1.2487 H         1 noname      0.0000
     55 H18        -1.5507  -10.7399    1.7071 H         1 noname      0.0000
     56 H19         0.9233   -2.8517   -4.9340 H         1 noname      0.0000
     57 H20        -7.6500   -2.0143   -2.0007 H         1 noname      0.0000
     58 S1          3.2443   -7.0836    3.0786 S         1 noname      0.0000
     59 N6          3.7496   -8.7347    3.4213 N.3       1 noname      0.0000
     60 C28         5.1336   -8.8618    2.9435 C.3       1 noname      0.0000
     61 N7          5.2529   -8.6588    1.5255 N.3       1 noname      0.0000
     62 C29         4.8367   -7.4965    0.8735 C.2       1 noname      0.0000
     63 C30         3.8138   -6.6972    1.4471 C.2       1 noname      0.0000
     64 C31         5.3581   -7.0614   -0.3837 C.2       1 noname      0.0000
     65 C32         4.6681   -6.1241   -1.1766 C.2       1 noname      0.0000
     66 C33         3.4392   -5.6625   -0.6870 C.2       1 noname      0.0000
     67 C34         3.1719   -5.7088    0.6934 C.2       1 noname      0.0000
     68 O3          1.6442   -7.0248    3.1576 O.2       1 noname      0.0000
     69 O4          3.8998   -6.1004    4.1628 O.2       1 noname      0.0000
     70 O5          5.1090   -5.8172   -2.4214 O.3       1 noname      0.0000
     71 C35         5.7280   -9.7964    0.8171 C.3       1 noname      0.0000
     72 N8          7.1364  -10.0234    0.8719 N.3       1 noname      0.0000
     73 C36         7.6754  -11.2268    0.5772 C.2       1 noname      0.0000
     74 N9          9.0172  -11.1934    0.6506 N.2       1 noname      0.0000
     75 C37         9.3224   -9.9387    1.0075 C.2       1 noname      0.0000
     76 C38         8.1578   -9.1897    1.1758 C.2       1 noname      0.0000
     77 N10        10.5524   -9.4024    1.1940 N.2       1 noname      0.0000
     78 C39        10.6595   -8.0955    1.5604 C.2       1 noname      0.0000
     79 N11         9.5507   -7.3367    1.7552 N.3       1 noname      0.0000
     80 C40         8.3068   -7.8397    1.5927 C.2       1 noname      0.0000
     81 O6          7.4074   -7.0164    1.8610 O.2       1 noname      0.0000
     82 N12        11.8567   -7.5220    1.7438 N.3       1 noname      0.0000
     83 H21         3.1515   -9.3870    2.9103 H         1 noname      0.0000
     84 H22         5.5185   -9.8480    3.2030 H         1 noname      0.0000
     85 H23         5.6790   -8.0663    3.4513 H         1 noname      0.0000
     86 H24         6.2184   -7.4754   -0.7520 H         1 noname      0.0000
     87 H25         2.4123   -5.1539    1.0894 H         1 noname      0.0000
     88 H26         2.7237   -5.6239   -2.4471 H         1 noname      0.0000
     89 H27         5.9182   -6.3339   -2.6180 H         1 noname      0.0000
     90 H28         5.2028  -10.6862    1.1644 H         1 noname      0.0000
     91 H29         5.5202   -9.6898   -0.2476 H         1 noname      0.0000
     92 H30         7.1475  -12.0728    0.3250 H         1 noname      0.0000
     93 H31         9.6328   -6.4063    2.0241 H         1 noname      0.0000
     94 H32        12.5561   -8.1729    1.5761 H         1 noname      0.0000
     95 H33        11.9253   -7.2016    2.6568 H         1 noname      0.0000
@<TRIPOS>BOND
1	1	3	1
2	1	2	2
3	1	38	1
4	2	6	1
5	2	39	1
6	3	30	1
7	3	5	2
8	4	5	1
9	4	6	1
10	4	16	2
11	5	26	1
12	6	8	2
13	7	18	2
14	7	8	1
15	7	36	1
16	8	40	1
17	9	10	1
18	9	12	1
19	9	13	2
20	10	31	1
21	10	15	2
22	11	35	1
23	11	31	2
24	11	32	1
25	12	32	2
26	12	37	1
27	13	33	1
28	13	41	1
29	14	15	1
30	14	16	1
31	14	33	2
32	15	28	1
33	16	18	1
34	17	19	1
35	17	35	1
36	17	42	1
37	17	43	1
38	18	44	1
39	19	25	1
40	19	20	1
41	19	34	1
42	20	21	1
43	20	45	1
44	20	46	1
45	21	29	1
46	21	22	1
47	21	47	1
48	22	34	1
49	22	48	1
50	22	49	1
51	23	24	1
52	23	34	1
53	23	50	1
54	23	51	1
55	24	25	1
56	24	52	1
57	24	53	1
58	25	54	1
59	25	55	1
60	26	27	3
61	27	56	1
62	36	57	1
63	37	66	1
64	37	88	1
65	58	63	1
66	58	68	2
67	58	69	2
68	58	59	1
69	59	60	1
70	59	83	1
71	60	61	1
72	60	84	1
73	60	85	1
74	61	62	1
75	61	71	1
76	62	63	2
77	62	64	1
78	63	67	1
79	64	65	2
80	64	86	1
81	65	66	1
82	65	70	1
83	66	67	2
84	67	87	1
85	70	89	1
86	71	72	1
87	71	90	1
88	71	91	1
89	72	73	1
90	72	76	1
91	73	74	2
92	73	92	1
93	74	75	1
94	75	76	2
95	75	77	1
96	76	80	1
97	77	78	2
98	78	79	1
99	78	82	1
100	79	80	1
101	79	93	1
102	80	81	2
103	82	94	1
104	82	95	1
@<TRIPOS>SUBSTRUCTURE
1	noname	1
