@<TRIPOS>MOLECULE
lig
90 98 1
SMALL
NO_CHARGES
@<TRIPOS>ATOM
      1 C27         2.6088   10.2561   -0.2904 C.2       1 noname      0.0000
      2 C1         -5.9782   13.6357   -4.3187 C.3       1 noname      0.0000
      3 C2         -5.6502   15.1824   -1.0594 C.3       1 noname      0.0000
      4 C3         -6.6706   16.0467   -1.8230 C.3       1 noname      0.0000
      5 C4         -7.2451   15.1106   -2.9043 C.3       1 noname      0.0000
      6 N1         -6.3168   13.9548   -2.9327 N.3       1 noname      0.0000
      7 C5         -5.0940   14.3385   -2.2038 C.3       1 noname      0.0000
      8 C6         -4.3172   13.1484   -1.6374 C.3       1 noname      0.0000
      9 O1         -3.7413   12.3749   -2.6921 O.3       1 noname      0.0000
     10 N2          3.5917    9.2148   -3.4816 N.3       1 noname      0.0000
     11 O2          0.0894    6.4320   -2.2668 O.2       1 noname      0.0000
     12 C7          1.2349    6.5509   -2.7528 C.2       1 noname      0.0000
     13 N3          1.8269    7.7809   -2.8674 N.3       1 noname      0.0000
     14 C8          3.0767    7.9807   -3.3969 C.2       1 noname      0.0000
     15 N4          3.7880    6.8979   -3.8369 N.2       1 noname      0.0000
     16 C9          1.9567    5.4180   -3.2003 C.2       1 noname      0.0000
     17 C10         3.2320    5.6531   -3.7298 C.2       1 noname      0.0000
     18 N5          3.7524    4.4703   -4.0845 N.2       1 noname      0.0000
     19 C11         2.8296    3.5275   -3.7942 C.2       1 noname      0.0000
     20 N6          1.7220    4.0906   -3.2614 N.3       1 noname      0.0000
     21 C12         0.5444    3.3159   -2.9626 C.3       1 noname      0.0000
     22 O3         -3.4838    6.5966   -3.7280 O.3       1 noname      0.0000
     23 O4         -1.2440    4.8460    2.4280 O.2       1 noname      0.0000
     24 O5          0.8259    5.3648    0.8902 O.2       1 noname      0.0000
     25 C13        -2.5332    6.0911   -0.1810 C.2       1 noname      0.0000
     26 C14        -3.0240    6.6864   -1.3713 C.2       1 noname      0.0000
     27 C15        -2.8439    6.0924   -2.6515 C.2       1 noname      0.0000
     28 C16        -1.9898    4.9686   -2.7932 C.2       1 noname      0.0000
     29 C17        -1.5833    5.0598   -0.3618 C.2       1 noname      0.0000
     30 C18        -1.2654    4.4910   -1.6446 C.2       1 noname      0.0000
     31 N7         -0.2070    3.5563   -1.7497 N.3       1 noname      0.0000
     32 C19         0.3003    2.7502   -0.6567 C.3       1 noname      0.0000
     33 N8         -0.2981    2.8733    0.6926 N.3       1 noname      0.0000
     34 S1         -0.5730    4.5822    0.9966 S         1 noname      0.0000
     35 N9         -3.5534    7.9336   -1.3057 N.3       1 noname      0.0000
     36 N10         0.6377    8.8020   -0.0267 N.2       1 noname      0.0000
     37 N11        -3.5466   10.1530   -1.8643 N.2       1 noname      0.0000
     38 N12        -1.7022   11.5869   -1.8602 N.2       1 noname      0.0000
     39 F1          0.7588   12.2257   -1.1174 F         1 noname      0.0000
     40 C20         0.3333   11.0116   -0.9240 C.2       1 noname      0.0000
     41 C21         1.1828   10.0156   -0.3775 C.2       1 noname      0.0000
     42 C22        -0.6570    8.4304   -0.2547 C.2       1 noname      0.0000
     43 C23        -2.8397    9.1235   -1.3296 C.2       1 noname      0.0000
     44 C24        -3.0003   11.3780   -2.1305 C.2       1 noname      0.0000
     45 C25        -0.9702   10.6467   -1.2463 C.2       1 noname      0.0000
     46 C26        -1.4930    9.3511   -0.9288 C.2       1 noname      0.0000
     47 H1         -5.2957   12.7860   -4.3395 H         1 noname      0.0000
     48 H2         -6.8868   13.3855   -4.8663 H         1 noname      0.0000
     49 H3         -5.4995   14.4977   -4.7834 H         1 noname      0.0000
     50 H4         -6.1753   14.5378   -0.3545 H         1 noname      0.0000
     51 H5         -4.8946   15.7571   -0.5236 H         1 noname      0.0000
     52 H6         -7.4679   16.3515   -1.1452 H         1 noname      0.0000
     53 H7         -6.1505   16.8747   -2.3046 H         1 noname      0.0000
     54 H8         -8.2367   14.7729   -2.6029 H         1 noname      0.0000
     55 H9         -7.3136   15.6212   -3.8649 H         1 noname      0.0000
     56 H10        -4.4299   14.9109   -2.8585 H         1 noname      0.0000
     57 H11        -4.9896   12.5211   -1.0521 H         1 noname      0.0000
     58 H12        -3.5006   13.4878   -1.0002 H         1 noname      0.0000
     59 H13         4.4760    9.1696   -3.8779 H         1 noname      0.0000
     60 H14         3.0175    9.7675   -4.0345 H         1 noname      0.0000
     61 H15         1.3336    8.5559   -2.5561 H         1 noname      0.0000
     62 H16         2.9517    2.5277   -3.9550 H         1 noname      0.0000
     63 H17        -0.1307    3.3361   -3.8182 H         1 noname      0.0000
     64 H18         0.9387    2.3006   -2.9188 H         1 noname      0.0000
     65 H19        -3.2494    6.0726   -4.5223 H         1 noname      0.0000
     66 H20        -2.8449    6.3873    0.7439 H         1 noname      0.0000
     67 H21        -1.8903    4.5054   -3.6965 H         1 noname      0.0000
     68 H22         0.3132    1.7016   -0.9541 H         1 noname      0.0000
     69 H23         1.3541    3.0209   -0.5914 H         1 noname      0.0000
     70 H24        -1.1902    2.3753    0.7164 H         1 noname      0.0000
     71 H25        -4.3079    7.9969   -1.9120 H         1 noname      0.0000
     72 H26        -1.0079    7.5224    0.0500 H         1 noname      0.0000
     73 C28         3.3029    9.6773    0.8295 C.2       1 noname      0.0000
     74 C29         4.6918    9.8813    1.0491 C.2       1 noname      0.0000
     75 C30         5.4205   10.6809    0.1418 C.2       1 noname      0.0000
     76 C31         4.7984   11.2588   -0.9983 C.2       1 noname      0.0000
     77 C32         3.3821   11.0301   -1.2520 C.2       1 noname      0.0000
     78 C33         5.5797   12.0835   -1.8886 C.2       1 noname      0.0000
     79 C34         4.9504   12.6560   -3.0171 C.2       1 noname      0.0000
     80 C35         3.5804   12.4190   -3.3138 C.2       1 noname      0.0000
     81 C36         2.8215   11.5935   -2.4423 C.2       1 noname      0.0000
     82 N13         5.3019    9.3223    2.1030 N.3       1 noname      0.0000
     83 H27         2.7797    9.1007    1.4885 H         1 noname      0.0000
     84 H28         6.4130   10.8473    0.3077 H         1 noname      0.0000
     85 H29         6.5693   12.2503   -1.7063 H         1 noname      0.0000
     86 H30         5.4948   13.2565   -3.6364 H         1 noname      0.0000
     87 H31         3.1494   12.8351   -4.1393 H         1 noname      0.0000
     88 H32         1.8474   11.3962   -2.6716 H         1 noname      0.0000
     89 H33         4.6570    8.8108    2.6162 H         1 noname      0.0000
     90 H34         5.6823   10.0173    2.6626 H         1 noname      0.0000
@<TRIPOS>BOND
1	1	41	1
2	1	77	2
3	1	73	1
4	2	6	1
5	2	47	1
6	2	48	1
7	2	49	1
8	3	4	1
9	3	7	1
10	3	50	1
11	3	51	1
12	4	5	1
13	4	52	1
14	4	53	1
15	5	6	1
16	5	54	1
17	5	55	1
18	6	7	1
19	7	8	1
20	7	56	1
21	8	9	1
22	8	57	1
23	8	58	1
24	9	44	1
25	10	14	1
26	10	59	1
27	10	60	1
28	11	12	2
29	12	13	1
30	12	16	1
31	13	14	1
32	13	61	1
33	14	15	2
34	15	17	1
35	16	17	2
36	16	20	1
37	17	18	1
38	18	19	2
39	19	20	1
40	19	62	1
41	20	21	1
42	21	31	1
43	21	63	1
44	21	64	1
45	22	27	1
46	22	65	1
47	23	34	2
48	24	34	2
49	25	26	2
50	25	29	1
51	25	66	1
52	26	27	1
53	26	35	1
54	27	28	2
55	28	30	1
56	28	67	1
57	29	30	2
58	29	34	1
59	30	31	1
60	31	32	1
61	32	33	1
62	32	68	1
63	32	69	1
64	33	34	1
65	33	70	1
66	35	43	1
67	35	71	1
68	36	41	2
69	36	42	1
70	37	43	2
71	37	44	1
72	38	44	2
73	38	45	1
74	39	40	1
75	40	41	1
76	40	45	2
77	42	46	2
78	42	72	1
79	43	46	1
80	45	46	1
81	73	74	2
82	73	83	1
83	74	75	1
84	74	82	1
85	75	76	2
86	75	84	1
87	76	77	1
88	76	78	1
89	77	81	1
90	78	79	2
91	78	85	1
92	79	80	1
93	79	86	1
94	80	81	2
95	80	87	1
96	81	88	1
97	82	89	1
98	82	90	1
@<TRIPOS>SUBSTRUCTURE
1	noname	1
