@<TRIPOS>MOLECULE
lig
78 85 1
SMALL
NO_CHARGES
@<TRIPOS>ATOM
      1 C1         -1.9449    2.9128   -2.6447 C.2       1 noname      0.0000
      2 C2         -3.1764    2.5425   -2.1044 C.2       1 noname      0.0000
      3 C3         -0.9602    1.9572   -2.8278 C.2       1 noname      0.0000
      4 C4         -2.4760    0.1510   -1.8622 C.2       1 noname      0.0000
      5 C5         -1.2336    0.5963   -2.5043 C.2       1 noname      0.0000
      6 C6         -3.4529    1.2096   -1.7203 C.2       1 noname      0.0000
      7 C7         -5.1266   -0.2943   -0.7933 C.2       1 noname      0.0000
      8 C8         -4.7506    0.9835   -1.1949 C.2       1 noname      0.0000
      9 C9          0.1469   -4.2461   -1.1527 C.2       1 noname      0.0000
     10 C10        -1.1645   -4.7027   -0.8638 C.2       1 noname      0.0000
     11 C11        -0.1844   -6.7883   -0.2616 C.2       1 noname      0.0000
     12 C12         1.2737   -5.0779   -0.9879 C.2       1 noname      0.0000
     13 C13         0.3132   -2.9139   -1.4581 C.2       1 noname      0.0000
     14 C14        -2.0379   -2.4079   -1.2614 C.2       1 noname      0.0000
     15 C15        -2.2708   -3.7980   -0.9389 C.2       1 noname      0.0000
     16 C16        -2.8804   -1.1916   -1.3810 C.2       1 noname      0.0000
     17 C17        -0.7937   -8.8239   -0.7331 C.3       1 noname      0.0000
     18 C18        -4.2159   -1.3487   -0.8901 C.2       1 noname      0.0000
     19 C19        -0.6896  -10.2825   -0.2836 C.3       1 noname      0.0000
     20 C20        -1.0329  -11.1492   -1.5048 C.3       1 noname      0.0000
     21 C21         0.3279  -11.3592   -2.1763 C.3       1 noname      0.0000
     22 C22         1.3429  -11.2893   -1.0202 C.3       1 noname      0.0000
     23 C23         0.5288  -11.6551    1.2225 C.3       1 noname      0.0000
     24 C24        -0.8345  -11.4115    1.8849 C.3       1 noname      0.0000
     25 C25        -1.6231  -10.5291    0.9121 C.3       1 noname      0.0000
     26 C26        -0.2774   -0.1262   -3.0048 C.1       1 noname      0.0000
     27 C27         0.6458   -0.7295   -3.4470 C.1       1 noname      0.0000
     28 F1         -3.4329   -4.2761   -0.5995 F         1 noname      0.0000
     29 F2          0.5297  -10.3563   -3.0970 F         1 noname      0.0000
     30 F3          0.1498    2.4583   -3.3792 F         1 noname      0.0000
     31 N1         -1.2741   -5.9804   -0.4227 N.2       1 noname      0.0000
     32 N2          1.0576   -6.3441   -0.5730 N.2       1 noname      0.0000
     33 N3         -0.7454   -2.1070   -1.4219 N.2       1 noname      0.0000
     34 N4          0.6775  -10.6559    0.1410 N.3       1 noname      0.0000
     35 O1         -0.2632   -8.0023    0.2894 O.3       1 noname      0.0000
     36 O2         -6.3704   -0.5099   -0.2798 O.3       1 noname      0.0000
     37 N5          2.5398   -4.5530   -1.0915 N.3       1 noname      0.0000
     38 H1         -1.7492    3.8738   -2.9290 H         1 noname      0.0000
     39 H2         -3.8561    3.2967   -2.0015 H         1 noname      0.0000
     40 H3         -5.4464    1.7472   -1.0964 H         1 noname      0.0000
     41 H4          1.2252   -2.5213   -1.6891 H         1 noname      0.0000
     42 H5         -1.8404   -8.5684   -0.8982 H         1 noname      0.0000
     43 H6         -0.2205   -8.6425   -1.6423 H         1 noname      0.0000
     44 H7         -4.5902   -2.2250   -0.5448 H         1 noname      0.0000
     45 H8         -1.6863  -10.5904   -2.1749 H         1 noname      0.0000
     46 H9         -1.4309  -12.1085   -1.1739 H         1 noname      0.0000
     47 H10         0.3809  -12.3278   -2.6707 H         1 noname      0.0000
     48 H11         1.6588  -12.2976   -0.7525 H         1 noname      0.0000
     49 H12         2.1770  -10.6896   -1.3848 H         1 noname      0.0000
     50 H13         0.5515  -12.6580    0.7962 H         1 noname      0.0000
     51 H14         1.3661  -11.6323    1.9199 H         1 noname      0.0000
     52 H15        -1.3512  -12.3626    2.0133 H         1 noname      0.0000
     53 H16        -0.6817  -10.8624    2.8140 H         1 noname      0.0000
     54 H17        -2.5114  -11.0635    0.5754 H         1 noname      0.0000
     55 H18        -1.7758   -9.5465    1.3586 H         1 noname      0.0000
     56 H19         1.3420   -1.2518   -3.7405 H         1 noname      0.0000
     57 H20        -6.8759    0.3297   -0.2846 H         1 noname      0.0000
     58 S1          3.2938   -7.1992    3.0411 S         1 noname      0.0000
     59 N6          3.5830   -8.9328    2.8796 N.3       1 noname      0.0000
     60 C28         4.9645   -9.1445    2.3986 C.3       1 noname      0.0000
     61 N7          5.2888   -8.4564    1.1814 N.3       1 noname      0.0000
     62 C29         4.8507   -7.2213    0.7978 C.2       1 noname      0.0000
     63 C30         3.8881   -6.4962    1.5369 C.2       1 noname      0.0000
     64 C31         5.3217   -6.6628   -0.4125 C.2       1 noname      0.0000
     65 C32         4.6941   -5.5364   -0.9816 C.2       1 noname      0.0000
     66 C33         3.5549   -5.0283   -0.3412 C.2       1 noname      0.0000
     67 C34         3.3111   -5.3350    1.0109 C.2       1 noname      0.0000
     68 O3          1.7222   -6.9419    3.2335 O.2       1 noname      0.0000
     69 O4          4.1114   -6.6038    4.2843 O.2       1 noname      0.0000
     70 O5          5.0815   -5.0600   -2.1890 O.3       1 noname      0.0000
     71 H21         3.4660   -9.3839    3.7891 H         1 noname      0.0000
     72 H22         5.1456  -10.2119    2.2719 H         1 noname      0.0000
     73 H23         5.6165   -8.7548    3.1804 H         1 noname      0.0000
     74 H24         6.2414   -8.5282    1.0134 H         1 noname      0.0000
     75 H25         6.0843   -7.1060   -0.9222 H         1 noname      0.0000
     76 H26         2.6089   -4.8158    1.5421 H         1 noname      0.0000
     77 H27         2.8073   -4.5356   -2.0237 H         1 noname      0.0000
     78 H28         5.8126   -5.6111   -2.5384 H         1 noname      0.0000
@<TRIPOS>BOND
1	1	3	1
2	1	2	2
3	1	38	1
4	2	6	1
5	2	39	1
6	3	30	1
7	3	5	2
8	4	5	1
9	4	6	1
10	4	16	2
11	5	26	1
12	6	8	2
13	7	18	2
14	7	8	1
15	7	36	1
16	8	40	1
17	9	10	1
18	9	12	1
19	9	13	2
20	10	31	1
21	10	15	2
22	11	35	1
23	11	31	2
24	11	32	1
25	12	32	2
26	12	37	1
27	13	33	1
28	13	41	1
29	14	15	1
30	14	16	1
31	14	33	2
32	15	28	1
33	16	18	1
34	17	19	1
35	17	35	1
36	17	42	1
37	17	43	1
38	18	44	1
39	19	25	1
40	19	20	1
41	19	34	1
42	20	21	1
43	20	45	1
44	20	46	1
45	21	29	1
46	21	22	1
47	21	47	1
48	22	34	1
49	22	48	1
50	22	49	1
51	23	24	1
52	23	34	1
53	23	50	1
54	23	51	1
55	24	25	1
56	24	52	1
57	24	53	1
58	25	54	1
59	25	55	1
60	26	27	3
61	27	56	1
62	36	57	1
63	37	66	1
64	37	77	1
65	58	63	1
66	58	68	2
67	58	69	2
68	58	59	1
69	59	60	1
70	59	71	1
71	60	61	1
72	60	72	1
73	60	73	1
74	61	62	1
75	61	74	1
76	62	63	2
77	62	64	1
78	63	67	1
79	64	65	2
80	64	75	1
81	65	66	1
82	65	70	1
83	66	67	2
84	67	76	1
85	70	78	1
@<TRIPOS>SUBSTRUCTURE
1	noname	1
