@<TRIPOS>MOLECULE
lig
89 97 1
SMALL
NO_CHARGES
@<TRIPOS>ATOM
      1 C27         2.5500   10.2199   -0.2566 C.2       1 noname      0.0000
      2 C1         -5.9483   13.6878   -4.3961 C.3       1 noname      0.0000
      3 C2         -5.6540   15.2206   -1.1270 C.3       1 noname      0.0000
      4 C3         -6.6558   16.0962   -1.9022 C.3       1 noname      0.0000
      5 C4         -7.2228   15.1689   -2.9949 C.3       1 noname      0.0000
      6 N1         -6.3042   14.0051   -3.0141 N.3       1 noname      0.0000
      7 C5         -5.0887   14.3757   -2.2664 C.3       1 noname      0.0000
      8 C6         -4.3305   13.1770   -1.6929 C.3       1 noname      0.0000
      9 O1         -3.7461   12.4020   -2.7420 O.3       1 noname      0.0000
     10 N2          3.5699    9.1809   -3.4370 N.3       1 noname      0.0000
     11 O2          0.0264    6.4246   -2.2825 O.2       1 noname      0.0000
     12 C7          1.1798    6.5352   -2.7515 C.2       1 noname      0.0000
     13 N3          1.7840    7.7603   -2.8533 N.3       1 noname      0.0000
     14 C8          3.0430    7.9510   -3.3640 C.2       1 noname      0.0000
     15 N4          3.7512    6.8636   -3.7975 N.2       1 noname      0.0000
     16 C9          1.8982    5.3976   -3.1925 C.2       1 noname      0.0000
     17 C10         3.1830    5.6234   -3.7028 C.2       1 noname      0.0000
     18 N5          3.6981    4.4373   -4.0542 N.2       1 noname      0.0000
     19 C11         2.7631    3.5015   -3.7805 C.2       1 noname      0.0000
     20 N6          1.6529    4.0724   -3.2617 N.3       1 noname      0.0000
     21 C12         0.4643    3.3070   -2.9826 C.3       1 noname      0.0000
     22 O3         -3.5237    6.6253   -3.7944 O.3       1 noname      0.0000
     23 O4         -1.3883    4.8343    2.3870 O.2       1 noname      0.0000
     24 O5          0.7080    5.3403    0.8810 O.2       1 noname      0.0000
     25 C13        -2.6289    6.0994   -0.2359 C.2       1 noname      0.0000
     26 C14        -3.0973    6.7031   -1.4310 C.2       1 noname      0.0000
     27 C15        -2.9039    6.1119   -2.7106 C.2       1 noname      0.0000
     28 C16        -2.0575    4.9812   -2.8439 C.2       1 noname      0.0000
     29 C17        -1.6854    5.0605   -0.4066 C.2       1 noname      0.0000
     30 C18        -1.3540    4.4934   -1.6867 C.2       1 noname      0.0000
     31 N7         -0.3023    3.5499   -1.7798 N.3       1 noname      0.0000
     32 C19         0.1821    2.7356   -0.6825 C.3       1 noname      0.0000
     33 N8         -0.4346    2.8594    0.6585 N.3       1 noname      0.0000
     34 S1         -0.6990    4.5696    0.9645 S         1 noname      0.0000
     35 N9         -3.6167    7.9546   -1.3687 N.3       1 noname      0.0000
     36 N10         0.5628    8.7822   -0.0264 N.2       1 noname      0.0000
     37 N11        -3.5827   10.1757   -1.9193 N.2       1 noname      0.0000
     38 N12        -1.7261   11.5935   -1.8836 N.2       1 noname      0.0000
     39 F1          0.7293   12.2083   -1.1032 F         1 noname      0.0000
     40 C20         0.2905   10.9973   -0.9202 C.2       1 noname      0.0000
     41 C21         1.1234    9.9921   -0.3651 C.2       1 noname      0.0000
     42 C22        -0.7316    8.4226   -0.2743 C.2       1 noname      0.0000
     43 C23        -2.8925    9.1383   -1.3781 C.2       1 noname      0.0000
     44 C24        -3.0220   11.3969   -2.1733 C.2       1 noname      0.0000
     45 C25        -1.0113   10.6449   -1.2625 C.2       1 noname      0.0000
     46 C26        -1.5498    9.3528   -0.9571 C.2       1 noname      0.0000
     47 H1         -5.2730   12.8323   -4.4102 H         1 noname      0.0000
     48 H2         -6.8511   13.4474   -4.9577 H         1 noname      0.0000
     49 H3         -5.4556   14.5471   -4.8509 H         1 noname      0.0000
     50 H4         -6.1948   14.5782   -0.4321 H         1 noname      0.0000
     51 H5         -4.9013   15.7868   -0.5785 H         1 noname      0.0000
     52 H6         -7.4602   16.4057   -1.2349 H         1 noname      0.0000
     53 H7         -6.1216   16.9214   -2.3733 H         1 noname      0.0000
     54 H8         -8.2215   14.8388   -2.7091 H         1 noname      0.0000
     55 H9         -7.2730   15.6833   -3.9546 H         1 noname      0.0000
     56 H10        -4.4103   14.9445   -2.9094 H         1 noname      0.0000
     57 H11        -5.0167   12.5536   -1.1196 H         1 noname      0.0000
     58 H12        -3.5203   13.5071   -1.0429 H         1 noname      0.0000
     59 H13         4.4593    9.1294   -3.8206 H         1 noname      0.0000
     60 H14         3.0085    9.7405   -3.9961 H         1 noname      0.0000
     61 H15         1.2930    8.5385   -2.5463 H         1 noname      0.0000
     62 H16         2.8788    2.5012   -3.9431 H         1 noname      0.0000
     63 H17        -0.1981    3.3360   -3.8477 H         1 noname      0.0000
     64 H18         0.8493    2.2883   -2.9367 H         1 noname      0.0000
     65 H19        -3.2825    6.1020   -4.5871 H         1 noname      0.0000
     66 H20        -2.9513    6.3953    0.6854 H         1 noname      0.0000
     67 H21        -1.9491    4.5202   -3.7473 H         1 noname      0.0000
     68 H22         0.1903    1.6880   -0.9833 H         1 noname      0.0000
     69 H23         1.2372    2.9970   -0.6011 H         1 noname      0.0000
     70 H24        -1.3312    2.3691    0.6676 H         1 noname      0.0000
     71 H25        -4.3618    8.0265   -1.9855 H         1 noname      0.0000
     72 H26        -1.0947    7.5166    0.0221 H         1 noname      0.0000
     73 C28         3.2228    9.6313    0.8712 C.2       1 noname      0.0000
     74 C29         4.6102    9.8224    1.1114 C.2       1 noname      0.0000
     75 C30         5.3588   10.6187    0.2175 C.2       1 noname      0.0000
     76 C31         4.7583   11.2059   -0.9294 C.2       1 noname      0.0000
     77 C32         3.3438   10.9904   -1.2042 C.2       1 noname      0.0000
     78 C33         5.5594   12.0268   -1.8054 C.2       1 noname      0.0000
     79 C34         4.9515   12.6086   -2.9408 C.2       1 noname      0.0000
     80 C35         3.5838   12.3845   -3.2580 C.2       1 noname      0.0000
     81 C36         2.8054   11.5627   -2.4004 C.2       1 noname      0.0000
     82 O6          1.5184   11.3138   -2.7234 O.3       1 noname      0.0000
     83 H27         2.6852    9.0571    1.5205 H         1 noname      0.0000
     84 H28         5.0593    9.3901    1.9188 H         1 noname      0.0000
     85 H29         6.3502   10.7759    0.3983 H         1 noname      0.0000
     86 H30         6.5477   12.1844   -1.6083 H         1 noname      0.0000
     87 H31         5.5099   13.2064   -3.5501 H         1 noname      0.0000
     88 H32         3.1685   12.8071   -4.0882 H         1 noname      0.0000
     89 H33         1.2979   11.7705   -3.5620 H         1 noname      0.0000
@<TRIPOS>BOND
1	1	41	1
2	1	77	2
3	1	73	1
4	2	6	1
5	2	47	1
6	2	48	1
7	2	49	1
8	3	4	1
9	3	7	1
10	3	50	1
11	3	51	1
12	4	5	1
13	4	52	1
14	4	53	1
15	5	6	1
16	5	54	1
17	5	55	1
18	6	7	1
19	7	8	1
20	7	56	1
21	8	9	1
22	8	57	1
23	8	58	1
24	9	44	1
25	10	14	1
26	10	59	1
27	10	60	1
28	11	12	2
29	12	13	1
30	12	16	1
31	13	14	1
32	13	61	1
33	14	15	2
34	15	17	1
35	16	17	2
36	16	20	1
37	17	18	1
38	18	19	2
39	19	20	1
40	19	62	1
41	20	21	1
42	21	31	1
43	21	63	1
44	21	64	1
45	22	27	1
46	22	65	1
47	23	34	2
48	24	34	2
49	25	26	2
50	25	29	1
51	25	66	1
52	26	27	1
53	26	35	1
54	27	28	2
55	28	30	1
56	28	67	1
57	29	30	2
58	29	34	1
59	30	31	1
60	31	32	1
61	32	33	1
62	32	68	1
63	32	69	1
64	33	34	1
65	33	70	1
66	35	43	1
67	35	71	1
68	36	41	2
69	36	42	1
70	37	43	2
71	37	44	1
72	38	44	2
73	38	45	1
74	39	40	1
75	40	41	1
76	40	45	2
77	42	46	2
78	42	72	1
79	43	46	1
80	45	46	1
81	73	74	2
82	73	83	1
83	74	75	1
84	74	84	1
85	75	76	2
86	75	85	1
87	76	77	1
88	76	78	1
89	77	81	1
90	78	79	2
91	78	86	1
92	79	80	1
93	79	87	1
94	80	81	2
95	80	88	1
96	81	82	1
97	82	89	1
@<TRIPOS>SUBSTRUCTURE
1	noname	1
