@<TRIPOS>MOLECULE
lig
86 94 1
SMALL
NO_CHARGES
@<TRIPOS>ATOM
      1 C1         -0.3921    2.5559   -0.0048 C.2       1 noname      0.0000
      2 C2         -1.7217    2.1514    0.1075 C.2       1 noname      0.0000
      3 C3          0.5980    1.6024   -0.1915 C.2       1 noname      0.0000
      4 C4         -1.1363   -0.2700   -0.1204 C.2       1 noname      0.0000
      5 C5          0.2363    0.2278   -0.3158 C.2       1 noname      0.0000
      6 C6         -2.0996    0.7927    0.0564 C.2       1 noname      0.0000
      7 C7         -3.9774   -0.7682    0.1358 C.2       1 noname      0.0000
      8 C8         -3.4946    0.5369    0.1797 C.2       1 noname      0.0000
      9 C9          1.1697   -4.9291    0.0621 C.2       1 noname      0.0000
     10 C10        -0.1874   -5.3121   -0.0983 C.2       1 noname      0.0000
     11 C11         0.5570   -7.5697    0.1587 C.2       1 noname      0.0000
     12 C12         2.1917   -5.8613    0.2805 C.2       1 noname      0.0000
     13 C13         1.5071   -3.5827    0.1635 C.2       1 noname      0.0000
     14 C14        -0.8265   -2.9262   -0.0563 C.2       1 noname      0.0000
     15 C15        -1.2342   -4.3482   -0.1994 C.2       1 noname      0.0000
     16 C16        -1.6824   -1.6510   -0.1027 C.2       1 noname      0.0000
     17 C17        -3.0930   -1.8322   -0.0044 C.2       1 noname      0.0000
     18 C18         1.3009   -0.4126   -0.7418 C.1       1 noname      0.0000
     19 C19         2.3044   -0.9535   -1.0719 C.1       1 noname      0.0000
     20 F1         -2.4576   -4.8056   -0.3039 F         1 noname      0.0000
     21 F2          1.8066    2.1327   -0.2986 F         1 noname      0.0000
     22 N1         -0.4290   -6.6571   -0.0535 N.2       1 noname      0.0000
     23 N2          1.8465   -7.1734    0.3063 N.2       1 noname      0.0000
     24 N3          0.5392   -2.6983    0.1997 N.2       1 noname      0.0000
     25 O1         -5.3084   -1.0072    0.2651 O.3       1 noname      0.0000
     26 N4          3.4594   -5.4421    0.6110 N.3       1 noname      0.0000
     27 S1          3.1337   -8.9936    4.0485 S         1 noname      0.0000
     28 N5          3.5173  -10.6590    3.6190 N.3       1 noname      0.0000
     29 C20         4.9818  -10.7325    3.4226 C.3       1 noname      0.0000
     30 N6          5.3823   -9.9177    2.3052 N.3       1 noname      0.0000
     31 C21         5.2264   -8.5437    2.3241 C.2       1 noname      0.0000
     32 C22         4.0963   -7.9774    2.9680 C.2       1 noname      0.0000
     33 C23         6.0493   -7.6629    1.5651 C.2       1 noname      0.0000
     34 C24         5.5538   -6.4215    1.1321 C.2       1 noname      0.0000
     35 C25         4.2419   -6.0906    1.4943 C.2       1 noname      0.0000
     36 C26         3.6492   -6.7043    2.6112 C.2       1 noname      0.0000
     37 O2          1.5620   -8.7262    3.8722 O.2       1 noname      0.0000
     38 O3          3.5688   -8.7565    5.5724 O.2       1 noname      0.0000
     39 O4          6.2462   -5.6742    0.2412 O.3       1 noname      0.0000
     40 C27         5.6353  -10.5124    1.0210 C.3       1 noname      0.0000
     41 N7          6.3776  -11.7146    0.8883 N.3       1 noname      0.0000
     42 C28         7.6660  -11.8091    0.5009 C.2       1 noname      0.0000
     43 N8          8.0243  -13.0937    0.3127 N.2       1 noname      0.0000
     44 C29         6.9311  -13.8176    0.5909 C.2       1 noname      0.0000
     45 C30         5.9018  -12.9656    0.9755 C.2       1 noname      0.0000
     46 N9          6.7415  -15.1572    0.5190 N.2       1 noname      0.0000
     47 C31         5.5267  -15.6793    0.8493 C.2       1 noname      0.0000
     48 N10         4.5079  -14.8752    1.2613 N.3       1 noname      0.0000
     49 C32         4.6533  -13.5286    1.3134 C.2       1 noname      0.0000
     50 O5          3.6581  -12.8497    1.6431 O.2       1 noname      0.0000
     51 N11         5.3163  -16.9962    0.7558 N.3       1 noname      0.0000
     52 O6          0.2655   -8.8701    0.3104 O.3       1 noname      0.0000
     53 H1         -0.1318    3.5394    0.0236 H         1 noname      0.0000
     54 H2         -2.3978    2.8940    0.2305 H         1 noname      0.0000
     55 H3         -4.1683    1.2983    0.3027 H         1 noname      0.0000
     56 H4          2.4703   -3.2415    0.2333 H         1 noname      0.0000
     57 H5         -3.5400   -2.7449    0.0036 H         1 noname      0.0000
     58 H6          3.0647   -1.4270   -1.2739 H         1 noname      0.0000
     59 H7         -5.7861   -0.1560    0.3531 H         1 noname      0.0000
     60 H8          3.9632   -5.2661   -0.1990 H         1 noname      0.0000
     61 H9          3.2447  -11.2795    4.3840 H         1 noname      0.0000
     62 H10         5.2726  -11.7671    3.2405 H         1 noname      0.0000
     63 H11         5.4198  -10.3294    4.3357 H         1 noname      0.0000
     64 H12         6.9594   -7.9744    1.2243 H         1 noname      0.0000
     65 H13         2.8142   -6.3074    3.0397 H         1 noname      0.0000
     66 H14         7.0728   -6.1403   -0.0036 H         1 noname      0.0000
     67 H15         4.6985  -10.6013    0.4709 H         1 noname      0.0000
     68 H16         6.1951   -9.7254    0.5157 H         1 noname      0.0000
     69 H17         8.2970  -11.0206    0.3451 H         1 noname      0.0000
     70 H18         3.6525  -15.2629    1.5141 H         1 noname      0.0000
     71 H19         6.1239  -17.4311    0.4402 H         1 noname      0.0000
     72 H20         4.5933  -17.1646    0.1315 H         1 noname      0.0000
     73 C33         0.3647   -9.4147   -0.9890 C.3       1 noname      0.0000
     74 C34        -0.0835  -10.8589   -0.8490 C.3       1 noname      0.0000
     75 C35         0.3490  -11.7013   -1.9605 C.2       1 noname      0.0000
     76 N12        -0.0209  -12.9865   -2.0674 N.2       1 noname      0.0000
     77 C36         0.5602  -13.4569   -3.1809 C.2       1 noname      0.0000
     78 C37         1.3003  -12.4412   -3.7660 C.2       1 noname      0.0000
     79 N13         1.1491  -11.3690   -2.9901 N.3       1 noname      0.0000
     80 H21        -0.3153   -8.8865   -1.6573 H         1 noname      0.0000
     81 H22         1.3674   -9.3246   -1.4069 H         1 noname      0.0000
     82 H23        -1.1697  -10.8959   -0.7662 H         1 noname      0.0000
     83 H24         0.3122  -11.3126    0.0597 H         1 noname      0.0000
     84 H25         0.4745  -14.4080   -3.5339 H         1 noname      0.0000
     85 H26         1.8551  -12.4944   -4.6198 H         1 noname      0.0000
     86 H27         1.5485  -10.4975   -3.1410 H         1 noname      0.0000
@<TRIPOS>BOND
1	1	3	1
2	1	2	2
3	1	53	1
4	2	6	1
5	2	54	1
6	3	21	1
7	3	5	2
8	4	5	1
9	4	6	1
10	4	16	2
11	5	18	1
12	6	8	2
13	7	17	2
14	7	8	1
15	7	25	1
16	8	55	1
17	9	10	1
18	9	12	1
19	9	13	2
20	10	22	1
21	10	15	2
22	11	22	2
23	11	23	1
24	11	52	1
25	12	23	2
26	12	26	1
27	13	24	1
28	13	56	1
29	14	15	1
30	14	16	1
31	14	24	2
32	15	20	1
33	16	17	1
34	17	57	1
35	18	19	3
36	19	58	1
37	25	59	1
38	26	35	1
39	26	60	1
40	27	32	1
41	27	37	2
42	27	38	2
43	27	28	1
44	28	29	1
45	28	61	1
46	29	30	1
47	29	62	1
48	29	63	1
49	30	31	1
50	30	40	1
51	31	32	2
52	31	33	1
53	32	36	1
54	33	34	2
55	33	64	1
56	34	35	1
57	34	39	1
58	35	36	2
59	36	65	1
60	39	66	1
61	40	41	1
62	40	67	1
63	40	68	1
64	41	42	1
65	41	45	1
66	42	43	2
67	42	69	1
68	43	44	1
69	44	45	2
70	44	46	1
71	45	49	1
72	46	47	2
73	47	48	1
74	47	51	1
75	48	49	1
76	48	70	1
77	49	50	2
78	51	71	1
79	51	72	1
80	52	73	1
81	73	74	1
82	73	80	1
83	73	81	1
84	74	75	1
85	74	82	1
86	74	83	1
87	75	79	1
88	75	76	2
89	76	77	1
90	77	78	2
91	77	84	1
92	78	79	1
93	78	85	1
94	79	86	1
@<TRIPOS>SUBSTRUCTURE
1	noname	1
