@<TRIPOS>MOLECULE
lig
94 103 1
SMALL
NO_CHARGES
@<TRIPOS>ATOM
      1 C1          3.0945    2.2750    4.0850 C.2       1 noname      0.0000
      2 C2          1.7012    2.2564    4.1075 C.2       1 noname      0.0000
      3 C3          3.7836    1.1703    3.6194 C.2       1 noname      0.0000
      4 C4          1.6045   -0.0789    3.1594 C.2       1 noname      0.0000
      5 C5          3.0692    0.0425    3.1297 C.2       1 noname      0.0000
      6 C6          0.9676    1.1249    3.6673 C.2       1 noname      0.0000
      7 C7         -1.2826    0.2145    3.3463 C.2       1 noname      0.0000
      8 C8         -0.4431    1.2526    3.7534 C.2       1 noname      0.0000
      9 C9          2.4789   -4.9500    1.6537 C.2       1 noname      0.0000
     10 C10         1.0342   -4.9263    1.4592 C.2       1 noname      0.0000
     11 C11         1.1723   -7.2270    0.8099 C.2       1 noname      0.0000
     12 C12         3.1908   -6.1472    1.5051 C.2       1 noname      0.0000
     13 C13         3.2596   -3.8180    2.0764 C.2       1 noname      0.0000
     14 C14         1.0321   -2.5354    2.2613 C.2       1 noname      0.0000
     15 C15         0.3388   -3.7153    1.7681 C.2       1 noname      0.0000
     16 C16         0.6974   -1.1941    2.7372 C.2       1 noname      0.0000
     17 C17         0.4218   -9.1580    1.5315 C.3       1 noname      0.0000
     18 C18        -0.7096   -0.9675    2.8514 C.2       1 noname      0.0000
     19 C19        -0.5239  -10.3320    1.2832 C.3       1 noname      0.0000
     20 C20        -0.8367  -10.9510    2.6531 C.3       1 noname      0.0000
     21 C21        -2.1331  -10.2568    3.0740 C.3       1 noname      0.0000
     22 C22        -2.8053   -9.8303    1.7593 C.3       1 noname      0.0000
     23 C23        -2.2032  -10.9416   -0.2722 C.3       1 noname      0.0000
     24 C24        -0.9355  -11.6875   -0.7087 C.3       1 noname      0.0000
     25 C25         0.1367  -11.3298    0.3246 C.3       1 noname      0.0000
     26 C26         3.9602   -0.7357    2.6077 C.1       1 noname      0.0000
     27 C27         4.8747   -1.3587    2.1603 C.1       1 noname      0.0000
     28 F1         -0.9634   -3.7388    1.6180 F         1 noname      0.0000
     29 F2         -1.8411   -9.1612    3.8491 F         1 noname      0.0000
     30 F3          5.0932    1.3530    3.6427 F         1 noname      0.0000
     31 N1          0.4699   -6.0829    1.0235 N.2       1 noname      0.0000
     32 N2          2.5073   -7.2369    1.0701 N.2       1 noname      0.0000
     33 N3          2.3925   -2.7788    2.3386 N.2       1 noname      0.0000
     34 N4         -1.7970   -9.8894    0.6799 N.3       1 noname      0.0000
     35 O1          0.5735   -8.3603    0.3655 O.3       1 noname      0.0000
     36 O2         -2.6194    0.3332    3.4440 O.3       1 noname      0.0000
     37 N5          4.5030   -6.1723    1.8717 N.3       1 noname      0.0000
     38 H1          3.6229    3.1103    4.4006 H         1 noname      0.0000
     39 H2          1.2477    3.1032    4.4662 H         1 noname      0.0000
     40 H3         -0.8956    2.1171    4.1246 H         1 noname      0.0000
     41 H4          4.2743   -3.7944    2.1741 H         1 noname      0.0000
     42 H5          0.0331   -8.5439    2.3438 H         1 noname      0.0000
     43 H6          1.3908   -9.5135    1.8818 H         1 noname      0.0000
     44 H7         -1.4003   -1.6701    2.5975 H         1 noname      0.0000
     45 H8         -1.0180  -12.0194    2.5362 H         1 noname      0.0000
     46 H9         -0.0295  -10.8236    3.3744 H         1 noname      0.0000
     47 H10        -2.7736  -10.9420    3.6259 H         1 noname      0.0000
     48 H11        -3.6228  -10.5140    1.5306 H         1 noname      0.0000
     49 H12        -3.1649   -8.8138    1.9194 H         1 noname      0.0000
     50 H13        -2.8817  -11.6368    0.2222 H         1 noname      0.0000
     51 H14        -2.7815  -10.5388   -1.1037 H         1 noname      0.0000
     52 H15        -1.1195  -12.7616   -0.6845 H         1 noname      0.0000
     53 H16        -0.6243  -11.3137   -1.6841 H         1 noname      0.0000
     54 H17         0.4246  -12.2258    0.8745 H         1 noname      0.0000
     55 H18         0.9656  -10.8363   -0.1829 H         1 noname      0.0000
     56 H19         5.5618   -1.8571    1.8212 H         1 noname      0.0000
     57 H20        -2.8433    1.2159    3.8060 H         1 noname      0.0000
     58 S1          3.1284  -10.1978    4.1013 S         1 noname      0.0000
     59 N6          3.0623  -11.4250    2.8973 N.3       1 noname      0.0000
     60 C28         4.1146  -11.7118    2.1165 C.2       1 noname      0.0000
     61 C29         5.2817  -11.0096    2.0498 C.2       1 noname      0.0000
     62 C30         5.4736   -9.7324    2.6711 C.2       1 noname      0.0000
     63 C31         4.4371   -9.1732    3.4866 C.2       1 noname      0.0000
     64 C32         6.5827   -8.8505    2.4209 C.2       1 noname      0.0000
     65 C33         6.3837   -7.4590    2.4393 C.2       1 noname      0.0000
     66 C34         5.0821   -7.0337    2.7195 C.2       1 noname      0.0000
     67 C35         4.2916   -7.7889    3.5917 C.2       1 noname      0.0000
     68 O3          1.7237   -9.4402    4.2393 O.2       1 noname      0.0000
     69 O4          3.4351  -10.7862    5.5652 O.2       1 noname      0.0000
     70 C36         6.3755  -11.6556    1.3336 C.3       1 noname      0.0000
     71 N7          7.3731  -12.2945    2.1641 N.3       1 noname      0.0000
     72 C37         8.5291  -12.7878    1.6704 C.2       1 noname      0.0000
     73 N8          9.3108  -13.3298    2.6291 N.2       1 noname      0.0000
     74 C38         8.6477  -13.1777    3.7818 C.2       1 noname      0.0000
     75 C39         7.4262  -12.5562    3.5010 C.2       1 noname      0.0000
     76 N9          9.0012  -13.5220    5.0514 N.2       1 noname      0.0000
     77 C40         8.1547  -13.2543    6.0935 C.2       1 noname      0.0000
     78 N10         6.9428  -12.6786    5.8561 N.3       1 noname      0.0000
     79 C41         6.5639  -12.3730    4.6009 C.2       1 noname      0.0000
     80 O5          5.3875  -11.9970    4.5595 O.2       1 noname      0.0000
     81 N11         8.4593  -13.5364    7.3695 N.3       1 noname      0.0000
     82 O6          7.8231   -9.2423    2.0243 O.3       1 noname      0.0000
     83 H21         2.7171  -12.2430    3.2879 H         1 noname      0.0000
     84 H22         3.9975  -12.5587    1.5914 H         1 noname      0.0000
     85 H23         7.1077   -6.8227    2.1038 H         1 noname      0.0000
     86 H24         3.5265   -7.3683    4.1089 H         1 noname      0.0000
     87 H25         5.0606   -6.0688    1.0848 H         1 noname      0.0000
     88 H26         5.9698  -12.3819    0.6293 H         1 noname      0.0000
     89 H27         6.9393  -10.9204    0.7595 H         1 noname      0.0000
     90 H28         8.8021  -12.7669    0.6752 H         1 noname      0.0000
     91 H29         6.3214  -12.4873    6.5799 H         1 noname      0.0000
     92 H30         9.3398  -13.9413    7.4098 H         1 noname      0.0000
     93 H31         7.8029  -14.1530    7.7298 H         1 noname      0.0000
     94 H32         8.3975   -8.4548    1.9227 H         1 noname      0.0000
@<TRIPOS>BOND
1	1	3	1
2	1	2	2
3	1	38	1
4	2	6	1
5	2	39	1
6	3	30	1
7	3	5	2
8	4	5	1
9	4	6	1
10	4	16	2
11	5	26	1
12	6	8	2
13	7	18	2
14	7	8	1
15	7	36	1
16	8	40	1
17	9	10	1
18	9	12	1
19	9	13	2
20	10	31	1
21	10	15	2
22	11	35	1
23	11	31	2
24	11	32	1
25	12	32	2
26	12	37	1
27	13	33	1
28	13	41	1
29	14	15	1
30	14	16	1
31	14	33	2
32	15	28	1
33	16	18	1
34	17	19	1
35	17	35	1
36	17	42	1
37	17	43	1
38	18	44	1
39	19	25	1
40	19	20	1
41	19	34	1
42	20	21	1
43	20	45	1
44	20	46	1
45	21	29	1
46	21	22	1
47	21	47	1
48	22	34	1
49	22	48	1
50	22	49	1
51	23	24	1
52	23	34	1
53	23	50	1
54	23	51	1
55	24	25	1
56	24	52	1
57	24	53	1
58	25	54	1
59	25	55	1
60	26	27	3
61	27	56	1
62	36	57	1
63	37	66	1
64	37	87	1
65	58	63	1
66	58	68	2
67	58	69	2
68	58	59	1
69	59	60	1
70	59	83	1
71	60	61	2
72	60	84	1
73	61	62	1
74	61	70	1
75	62	63	2
76	62	64	1
77	63	67	1
78	64	65	2
79	64	82	1
80	65	66	1
81	65	85	1
82	66	67	2
83	67	86	1
84	70	71	1
85	70	88	1
86	70	89	1
87	71	72	1
88	71	75	1
89	72	73	2
90	72	90	1
91	73	74	1
92	74	75	2
93	74	76	1
94	75	79	1
95	76	77	2
96	77	78	1
97	77	81	1
98	78	79	1
99	78	91	1
100	79	80	2
101	81	92	1
102	81	93	1
103	82	94	1
@<TRIPOS>SUBSTRUCTURE
1	noname	1
