@<TRIPOS>MOLECULE
lig
95 104 1
SMALL
NO_CHARGES
@<TRIPOS>ATOM
      1 C1         -2.7628    0.8159   -4.9673 C.2       1 noname      0.0000
      2 C2         -3.9702    0.3954   -4.4150 C.2       1 noname      0.0000
      3 C3         -1.6511   -0.0149   -4.9177 C.2       1 noname      0.0000
      4 C4         -2.9676   -1.7825   -3.6543 C.2       1 noname      0.0000
      5 C5         -1.7619   -1.3149   -4.3542 C.2       1 noname      0.0000
      6 C6         -4.0817   -0.8617   -3.7686 C.2       1 noname      0.0000
      7 C7         -5.6140   -2.3801   -2.6048 C.2       1 noname      0.0000
      8 C8         -5.3734   -1.1677   -3.2557 C.2       1 noname      0.0000
      9 C9          0.1572   -5.5550   -1.8386 C.2       1 noname      0.0000
     10 C10        -1.0909   -6.1383   -1.5178 C.2       1 noname      0.0000
     11 C11         0.0544   -7.9067   -0.4156 C.2       1 noname      0.0000
     12 C12         1.3417   -6.1786   -1.4390 C.2       1 noname      0.0000
     13 C13         0.1684   -4.2957   -2.4310 C.2       1 noname      0.0000
     14 C14        -2.2534   -4.0207   -2.4880 C.2       1 noname      0.0000
     15 C15        -2.2768   -5.3617   -1.8697 C.2       1 noname      0.0000
     16 C16        -3.2289   -3.0299   -2.8970 C.2       1 noname      0.0000
     17 C17        -0.3081  -10.0744   -0.4637 C.3       1 noname      0.0000
     18 C18        -4.5600   -3.2793   -2.4415 C.2       1 noname      0.0000
     19 C19        -0.0193  -11.3916    0.2564 C.3       1 noname      0.0000
     20 C20        -0.1493  -12.4944   -0.8028 C.3       1 noname      0.0000
     21 C21         1.2862  -12.6781   -1.2976 C.3       1 noname      0.0000
     22 C22         2.1792  -12.2326   -0.1286 C.3       1 noname      0.0000
     23 C23         1.2774  -12.1558    2.0822 C.3       1 noname      0.0000
     24 C24        -0.1304  -11.9195    2.6418 C.3       1 noname      0.0000
     25 C25        -0.9984  -11.5787    1.4262 C.3       1 noname      0.0000
     26 C26        -0.6766   -1.9732   -4.6509 C.1       1 noname      0.0000
     27 C27         0.3551   -2.5220   -4.8933 C.1       1 noname      0.0000
     28 F1         -3.4119   -5.9397   -1.5367 F         1 noname      0.0000
     29 F2          1.5067  -11.8907   -2.4014 F         1 noname      0.0000
     30 F3         -0.5906    0.5164   -5.4973 F         1 noname      0.0000
     31 N1         -1.0946   -7.3007   -0.8166 N.2       1 noname      0.0000
     32 N2          1.2385   -7.3552   -0.7440 N.2       1 noname      0.0000
     33 N3         -0.9877   -3.6446   -2.6463 N.2       1 noname      0.0000
     34 N4          1.3566  -11.4315    0.8002 N.3       1 noname      0.0000
     35 O1          0.0451   -8.9902    0.3764 O.3       1 noname      0.0000
     36 O2         -6.8401   -2.6529   -2.1136 O.3       1 noname      0.0000
     37 N5          2.5477   -5.5446   -1.6030 N.3       1 noname      0.0000
     38 H1         -2.7109    1.7378   -5.4468 H         1 noname      0.0000
     39 H2         -4.7683    1.0344   -4.4963 H         1 noname      0.0000
     40 H3         -6.1670   -0.5049   -3.3468 H         1 noname      0.0000
     41 H4          1.0524   -3.8493   -2.7072 H         1 noname      0.0000
     42 H5         -1.3696  -10.0169   -0.7042 H         1 noname      0.0000
     43 H6          0.2776   -9.9887   -1.3790 H         1 noname      0.0000
     44 H7         -4.8106   -4.1310   -1.9420 H         1 noname      0.0000
     45 H8         -0.7735  -12.1389   -1.6226 H         1 noname      0.0000
     46 H9         -0.4953  -13.4148   -0.3325 H         1 noname      0.0000
     47 H10         1.4661  -13.7219   -1.5422 H         1 noname      0.0000
     48 H11         2.5628  -13.1108    0.3908 H         1 noname      0.0000
     49 H12         3.0287  -11.6636   -0.5064 H         1 noname      0.0000
     50 H13         1.4246  -13.2216    1.9070 H         1 noname      0.0000
     51 H14         2.0775  -11.8724    2.7660 H         1 noname      0.0000
     52 H15        -0.4964  -12.8363    3.1039 H         1 noname      0.0000
     53 H16        -0.1066  -11.0613    3.3134 H         1 noname      0.0000
     54 H17        -1.6662  -12.4129    1.2112 H         1 noname      0.0000
     55 H18        -1.5668  -10.6745    1.6442 H         1 noname      0.0000
     56 H19         1.1678   -2.9339   -5.0667 H         1 noname      0.0000
     57 H20        -7.4476   -1.9128   -2.3223 H         1 noname      0.0000
     58 S1          3.2598   -7.0742    3.0535 S         1 noname      0.0000
     59 N6          3.7283   -8.7266    3.4362 N.3       1 noname      0.0000
     60 C28         5.1203   -8.8802    2.9923 C.3       1 noname      0.0000
     61 N7          5.2738   -8.7082    1.5732 N.3       1 noname      0.0000
     62 C29         4.8961   -7.5508    0.8851 C.2       1 noname      0.0000
     63 C30         3.8721   -6.7262    1.4277 C.2       1 noname      0.0000
     64 C31         5.4438   -7.1382   -0.3735 C.2       1 noname      0.0000
     65 C32         4.7739   -6.2089   -1.1866 C.2       1 noname      0.0000
     66 C33         3.5477   -5.7189   -0.7260 C.2       1 noname      0.0000
     67 C34         3.2571   -5.7385    0.6496 C.2       1 noname      0.0000
     68 O3          1.6595   -6.9880    3.1000 O.2       1 noname      0.0000
     69 O4          3.9082   -6.0844    4.1361 O.2       1 noname      0.0000
     70 C35         5.7374   -9.8773    0.9122 C.3       1 noname      0.0000
     71 N8          7.1441  -10.1165    0.9878 N.3       1 noname      0.0000
     72 C36         7.6717  -11.3289    0.7114 C.2       1 noname      0.0000
     73 N9          9.0124  -11.3128    0.8057 N.2       1 noname      0.0000
     74 C37         9.3297  -10.0590    1.1548 C.2       1 noname      0.0000
     75 C38         8.1733   -9.2926    1.2977 C.2       1 noname      0.0000
     76 N10        10.5644   -9.5386    1.3545 N.2       1 noname      0.0000
     77 C39        10.6862   -8.2286    1.7047 C.2       1 noname      0.0000
     78 N11         9.5861   -7.4504    1.8690 N.3       1 noname      0.0000
     79 C40         8.3375   -7.9387    1.6984 C.2       1 noname      0.0000
     80 O5          7.4471   -7.0975    1.9410 O.2       1 noname      0.0000
     81 N12        11.8888   -7.6707    1.9011 N.3       1 noname      0.0000
     82 O6          6.5912   -7.6514   -0.8802 O.3       1 noname      0.0000
     83 H21         3.1326   -9.3777    2.9208 H         1 noname      0.0000
     84 H22         5.4870   -9.8653    3.2807 H         1 noname      0.0000
     85 H23         5.6642   -8.0809    3.4958 H         1 noname      0.0000
     86 H24         5.1216   -6.0036   -2.1275 H         1 noname      0.0000
     87 H25         2.4999   -5.1638    1.0225 H         1 noname      0.0000
     88 H26         2.8755   -5.7011   -2.5025 H         1 noname      0.0000
     89 H27         5.2001  -10.7465    1.2917 H         1 noname      0.0000
     90 H28         5.5378   -9.8104   -0.1573 H         1 noname      0.0000
     91 H29         7.1364  -12.1699    0.4585 H         1 noname      0.0000
     92 H30         9.6784   -6.5163    2.1214 H         1 noname      0.0000
     93 H31        12.5809   -8.3343    1.7546 H         1 noname      0.0000
     94 H32        11.9465   -7.3386    2.8106 H         1 noname      0.0000
     95 H33         6.7825   -7.2322   -1.7452 H         1 noname      0.0000
@<TRIPOS>BOND
1	1	3	1
2	1	2	2
3	1	38	1
4	2	6	1
5	2	39	1
6	3	30	1
7	3	5	2
8	4	5	1
9	4	6	1
10	4	16	2
11	5	26	1
12	6	8	2
13	7	18	2
14	7	8	1
15	7	36	1
16	8	40	1
17	9	10	1
18	9	12	1
19	9	13	2
20	10	31	1
21	10	15	2
22	11	35	1
23	11	31	2
24	11	32	1
25	12	32	2
26	12	37	1
27	13	33	1
28	13	41	1
29	14	15	1
30	14	16	1
31	14	33	2
32	15	28	1
33	16	18	1
34	17	19	1
35	17	35	1
36	17	42	1
37	17	43	1
38	18	44	1
39	19	25	1
40	19	20	1
41	19	34	1
42	20	21	1
43	20	45	1
44	20	46	1
45	21	29	1
46	21	22	1
47	21	47	1
48	22	34	1
49	22	48	1
50	22	49	1
51	23	24	1
52	23	34	1
53	23	50	1
54	23	51	1
55	24	25	1
56	24	52	1
57	24	53	1
58	25	54	1
59	25	55	1
60	26	27	3
61	27	56	1
62	36	57	1
63	37	66	1
64	37	88	1
65	58	63	1
66	58	68	2
67	58	69	2
68	58	59	1
69	59	60	1
70	59	83	1
71	60	61	1
72	60	84	1
73	60	85	1
74	61	62	1
75	61	70	1
76	62	63	2
77	62	64	1
78	63	67	1
79	64	65	2
80	64	82	1
81	65	66	1
82	65	86	1
83	66	67	2
84	67	87	1
85	70	71	1
86	70	89	1
87	70	90	1
88	71	72	1
89	71	75	1
90	72	73	2
91	72	91	1
92	73	74	1
93	74	75	2
94	74	76	1
95	75	79	1
96	76	77	2
97	77	78	1
98	77	81	1
99	78	79	1
100	78	92	1
101	79	80	2
102	81	93	1
103	81	94	1
104	82	95	1
@<TRIPOS>SUBSTRUCTURE
1	noname	1
