@<TRIPOS>MOLECULE
lig
85 92 1
SMALL
NO_CHARGES
@<TRIPOS>ATOM
      1 C1         -1.9048   -0.6325    6.0940 C.2       1 noname      0.0000
      2 C2         -3.1402   -1.2503    6.2622 C.2       1 noname      0.0000
      3 C3         -0.9652   -1.1568    5.2030 C.2       1 noname      0.0000
      4 C4         -2.4649   -3.0793    4.5116 C.2       1 noname      0.0000
      5 C5         -1.2179   -2.3351    4.4267 C.2       1 noname      0.0000
      6 C6         -3.4027   -2.4483    5.4827 C.2       1 noname      0.0000
      7 C7         -5.0750   -4.1514    5.0563 C.2       1 noname      0.0000
      8 C8         -4.6836   -3.0014    5.7260 C.2       1 noname      0.0000
      9 C9         -0.5053   -6.3798    0.7173 C.2       1 noname      0.0000
     10 C10        -1.8025   -6.8488    1.0318 C.2       1 noname      0.0000
     11 C11        -1.5504   -8.5433   -0.5908 C.2       1 noname      0.0000
     12 C12         0.2388   -7.0098   -0.3259 C.2       1 noname      0.0000
     13 C13        -0.0525   -5.3142    1.5190 C.2       1 noname      0.0000
     14 C14        -2.1593   -5.1189    2.7752 C.2       1 noname      0.0000
     15 C15        -2.6192   -6.2497    2.0159 C.2       1 noname      0.0000
     16 C16        -2.8983   -4.3023    3.8071 C.2       1 noname      0.0000
     17 C17        -4.2161   -4.7648    4.1493 C.2       1 noname      0.0000
     18 C18        -0.1862   -2.5792    3.6937 C.1       1 noname      0.0000
     19 C19         0.7999   -2.7509    3.0483 C.1       1 noname      0.0000
     20 F1         -3.7939   -6.8149    2.1654 F         1 noname      0.0000
     21 F2          0.1604   -0.4417    5.1692 F         1 noname      0.0000
     22 N1         -2.2767   -7.9224    0.3676 N.2       1 noname      0.0000
     23 N2         -0.3266   -8.0652   -0.9560 N.2       1 noname      0.0000
     24 N3         -0.8753   -4.7775    2.4549 N.2       1 noname      0.0000
     25 O1         -6.3103   -4.6753    5.2993 O.3       1 noname      0.0000
     26 N4          1.5385   -6.6650   -0.6186 N.3       1 noname      0.0000
     27 S1          2.5724  -10.9034    1.8373 S         1 noname      0.0000
     28 N5          2.5353  -10.5060    3.5659 N.3       1 noname      0.0000
     29 C20         3.3860   -9.3315    3.8919 C.3       1 noname      0.0000
     30 N6          4.4963   -9.1302    2.9873 N.3       1 noname      0.0000
     31 C21         4.1573   -8.7177    1.7229 C.2       1 noname      0.0000
     32 C22         3.1426   -9.4271    1.0484 C.2       1 noname      0.0000
     33 C23         4.5953   -7.4917    1.1697 C.2       1 noname      0.0000
     34 C24         3.8079   -6.8401    0.1958 C.2       1 noname      0.0000
     35 C25         2.6025   -7.4400   -0.2276 C.2       1 noname      0.0000
     36 C26         2.4362   -8.8210    0.0132 C.2       1 noname      0.0000
     37 O2          1.1120  -11.3566    1.3611 O.2       1 noname      0.0000
     38 O3          3.6340  -12.0917    1.6655 O.2       1 noname      0.0000
     39 O4          4.1472   -5.5965   -0.2080 O.3       1 noname      0.0000
     40 C27         5.8551   -9.2930    3.4058 C.3       1 noname      0.0000
     41 N7          6.3137  -10.6047    3.7790 N.3       1 noname      0.0000
     42 C28         7.1575  -11.3695    3.0461 C.2       1 noname      0.0000
     43 N8          7.5583  -12.4660    3.7164 N.2       1 noname      0.0000
     44 C29         6.9359  -12.4063    4.8991 C.2       1 noname      0.0000
     45 C30         6.1214  -11.2751    4.9382 C.2       1 noname      0.0000
     46 N9          7.0338  -13.2523    5.9545 N.2       1 noname      0.0000
     47 C31         6.2854  -13.0187    7.0690 C.2       1 noname      0.0000
     48 N10         5.4497  -11.9500    7.1364 N.3       1 noname      0.0000
     49 C32         5.3658  -11.0635    6.1168 C.2       1 noname      0.0000
     50 O5          4.6315  -10.0824    6.3371 O.2       1 noname      0.0000
     51 N11         6.3491  -13.8465    8.1171 N.3       1 noname      0.0000
     52 O6         -2.0984   -9.6258   -1.1755 O.3       1 noname      0.0000
     53 H1         -1.6605    0.2132    6.6151 H         1 noname      0.0000
     54 H2         -3.7988   -0.8319    6.9229 H         1 noname      0.0000
     55 H3         -5.3525   -2.5712    6.4014 H         1 noname      0.0000
     56 H4          0.8856   -4.9207    1.3970 H         1 noname      0.0000
     57 H5         -4.6580   -5.5895    3.7739 H         1 noname      0.0000
     58 H6          1.5330   -2.9395    2.5267 H         1 noname      0.0000
     59 H7         -6.7764   -4.1205    5.9591 H         1 noname      0.0000
     60 H8          1.6956   -5.7444   -0.3568 H         1 noname      0.0000
     61 H9          1.5722  -10.3189    3.8519 H         1 noname      0.0000
     62 H10         2.7701   -8.4325    3.9169 H         1 noname      0.0000
     63 H11         3.7401   -9.5244    4.9046 H         1 noname      0.0000
     64 H12         5.4142   -7.0195    1.5522 H         1 noname      0.0000
     65 H13         1.7228   -9.3616   -0.4594 H         1 noname      0.0000
     66 H14         4.9516   -5.3058    0.2703 H         1 noname      0.0000
     67 H15         6.0748   -8.5892    4.2086 H         1 noname      0.0000
     68 H16         6.4144   -9.0641    2.4987 H         1 noname      0.0000
     69 H17         7.4728  -11.1633    2.0962 H         1 noname      0.0000
     70 H18         4.9140  -11.7905    7.9338 H         1 noname      0.0000
     71 H19         6.9737  -14.5635    7.9254 H         1 noname      0.0000
     72 H20         5.4704  -14.2202    8.2879 H         1 noname      0.0000
     73 C33        -1.7038  -10.7639   -0.4029 C.3       1 noname      0.0000
     74 C34        -2.2987  -12.0309   -1.0208 C.3       1 noname      0.0000
     75 C35        -1.8768  -13.2477   -0.1948 C.3       1 noname      0.0000
     76 C36        -1.7891  -12.1866   -2.4550 C.3       1 noname      0.0000
     77 H21        -2.0668  -10.6531    0.6189 H         1 noname      0.0000
     78 H22        -0.6164  -10.8391   -0.3960 H         1 noname      0.0000
     79 H23        -3.3861  -11.9557   -1.0277 H         1 noname      0.0000
     80 H24        -2.3006  -14.1503   -0.6350 H         1 noname      0.0000
     81 H25        -2.2398  -13.1368    0.8270 H         1 noname      0.0000
     82 H26        -0.7894  -13.3229   -0.1879 H         1 noname      0.0000
     83 H27        -2.2129  -13.0892   -2.8952 H         1 noname      0.0000
     84 H28        -2.0897  -11.3197   -3.0435 H         1 noname      0.0000
     85 H29        -0.7017  -12.2617   -2.4481 H         1 noname      0.0000
@<TRIPOS>BOND
1	1	3	1
2	1	2	2
3	1	53	1
4	2	6	1
5	2	54	1
6	3	21	1
7	3	5	2
8	4	5	1
9	4	6	1
10	4	16	2
11	5	18	1
12	6	8	2
13	7	17	2
14	7	8	1
15	7	25	1
16	8	55	1
17	9	10	1
18	9	12	1
19	9	13	2
20	10	22	1
21	10	15	2
22	11	22	2
23	11	23	1
24	11	52	1
25	12	23	2
26	12	26	1
27	13	24	1
28	13	56	1
29	14	15	1
30	14	16	1
31	14	24	2
32	15	20	1
33	16	17	1
34	17	57	1
35	18	19	3
36	19	58	1
37	25	59	1
38	26	35	1
39	26	60	1
40	27	32	1
41	27	37	2
42	27	38	2
43	27	28	1
44	28	29	1
45	28	61	1
46	29	30	1
47	29	62	1
48	29	63	1
49	30	31	1
50	30	40	1
51	31	32	2
52	31	33	1
53	32	36	1
54	33	34	2
55	33	64	1
56	34	35	1
57	34	39	1
58	35	36	2
59	36	65	1
60	39	66	1
61	40	41	1
62	40	67	1
63	40	68	1
64	41	42	1
65	41	45	1
66	42	43	2
67	42	69	1
68	43	44	1
69	44	45	2
70	44	46	1
71	45	49	1
72	46	47	2
73	47	48	1
74	47	51	1
75	48	49	1
76	48	70	1
77	49	50	2
78	51	71	1
79	51	72	1
80	52	73	1
81	73	74	1
82	73	77	1
83	73	78	1
84	74	76	1
85	74	75	1
86	74	79	1
87	75	80	1
88	75	81	1
89	75	82	1
90	76	83	1
91	76	84	1
92	76	85	1
@<TRIPOS>SUBSTRUCTURE
1	noname	1
