@<TRIPOS>MOLECULE
lig
88 95 1
SMALL
NO_CHARGES
@<TRIPOS>ATOM
      1 C1         -1.9869   -0.4511    5.7647 C.2       1 noname      0.0000
      2 C2         -3.1802   -1.1054    6.0549 C.2       1 noname      0.0000
      3 C3         -1.0667   -1.0147    4.8774 C.2       1 noname      0.0000
      4 C4         -2.5004   -3.0600    4.4476 C.2       1 noname      0.0000
      5 C5         -1.2977   -2.2716    4.2280 C.2       1 noname      0.0000
      6 C6         -3.4201   -2.3827    5.4046 C.2       1 noname      0.0000
      7 C7         -5.0239   -4.1924    5.2272 C.2       1 noname      0.0000
      8 C8         -4.6584   -2.9675    5.7658 C.2       1 noname      0.0000
      9 C9         -0.5652   -6.6140    0.8761 C.2       1 noname      0.0000
     10 C10        -1.8206   -7.1091    1.3012 C.2       1 noname      0.0000
     11 C11        -1.5633   -8.9369   -0.1687 C.2       1 noname      0.0000
     12 C12         0.1577   -7.3059   -0.1424 C.2       1 noname      0.0000
     13 C13        -0.1278   -5.4577    1.5506 C.2       1 noname      0.0000
     14 C14        -2.1780   -5.2394    2.8936 C.2       1 noname      0.0000
     15 C15        -2.6173   -6.4568    2.2677 C.2       1 noname      0.0000
     16 C16        -2.9058   -4.3627    3.8833 C.2       1 noname      0.0000
     17 C17        -4.1806   -4.8497    4.3364 C.2       1 noname      0.0000
     18 C18        -0.2921   -2.5374    3.4669 C.1       1 noname      0.0000
     19 C19         0.6689   -2.7248    2.7886 C.1       1 noname      0.0000
     20 F1         -3.7536   -7.0577    2.5311 F         1 noname      0.0000
     21 F2          0.0187   -0.2559    4.7178 F         1 noname      0.0000
     22 N1         -2.2723   -8.2613    0.7654 N.2       1 noname      0.0000
     23 N2         -0.3843   -8.4408   -0.6411 N.2       1 noname      0.0000
     24 N3         -0.9298   -4.8723    2.4752 N.2       1 noname      0.0000
     25 O1         -6.2182   -4.7462    5.5829 O.3       1 noname      0.0000
     26 N4          1.4228   -6.9321   -0.5344 N.3       1 noname      0.0000
     27 S1          2.7856  -10.8669    2.2447 S         1 noname      0.0000
     28 N5          2.8130  -10.3093    3.9286 N.3       1 noname      0.0000
     29 C20         3.6187   -9.0719    4.0989 C.3       1 noname      0.0000
     30 N6          4.6722   -8.9075    3.1217 N.3       1 noname      0.0000
     31 C21         4.2518   -8.6326    1.8444 C.2       1 noname      0.0000
     32 C22         3.2422   -9.4479    1.2934 C.2       1 noname      0.0000
     33 C23         4.6005   -7.4461    1.1576 C.2       1 noname      0.0000
     34 C24         3.7351   -6.9262    0.1708 C.2       1 noname      0.0000
     35 C25         2.5419   -7.6175   -0.1305 C.2       1 noname      0.0000
     36 C26         2.4569   -8.9755    0.2456 C.2       1 noname      0.0000
     37 O2          1.3283  -11.4289    1.8908 O.2       1 noname      0.0000
     38 O3          3.8957  -12.0171    2.1274 O.2       1 noname      0.0000
     39 O4          3.9917   -5.7125   -0.3638 O.3       1 noname      0.0000
     40 C27         6.0562   -8.9682    3.4806 C.3       1 noname      0.0000
     41 N7          6.5975  -10.2164    3.9487 N.3       1 noname      0.0000
     42 C28         7.4417  -11.0084    3.2459 C.2       1 noname      0.0000
     43 N8          7.9290  -12.0171    3.9925 N.2       1 noname      0.0000
     44 C29         7.3627  -11.8735    5.1960 C.2       1 noname      0.0000
     45 C30         6.4955  -10.7817    5.1735 C.2       1 noname      0.0000
     46 N9          7.5540  -12.6102    6.3185 N.2       1 noname      0.0000
     47 C31         6.8501  -12.3059    7.4448 C.2       1 noname      0.0000
     48 N10         5.9663  -11.2745    7.4574 N.3       1 noname      0.0000
     49 C32         5.7886  -10.4936    6.3660 C.2       1 noname      0.0000
     50 O5          5.0178   -9.5302    6.5333 O.2       1 noname      0.0000
     51 N11         7.0061  -13.0267    8.5601 N.3       1 noname      0.0000
     52 O6         -2.0843  -10.0937   -0.6208 O.3       1 noname      0.0000
     53 H1         -1.7601    0.4503    6.1916 H         1 noname      0.0000
     54 H2         -3.8259   -0.6564    6.7080 H         1 noname      0.0000
     55 H3         -5.3143   -2.5058    6.4331 H         1 noname      0.0000
     56 H4          0.7824   -5.0355    1.3430 H         1 noname      0.0000
     57 H5         -4.5986   -5.7254    4.0630 H         1 noname      0.0000
     58 H6          1.3841   -2.9287    2.2485 H         1 noname      0.0000
     59 H7         -6.6788   -4.1529    6.2124 H         1 noname      0.0000
     60 H8          1.5462   -5.9845   -0.3676 H         1 noname      0.0000
     61 H9          1.8567  -10.1396    4.2468 H         1 noname      0.0000
     62 H10         2.9606   -8.2034    4.0732 H         1 noname      0.0000
     63 H11         4.0309   -9.1516    5.1047 H         1 noname      0.0000
     64 H12         5.4125   -6.9032    1.4507 H         1 noname      0.0000
     65 H13         1.7491   -9.5902   -0.1364 H         1 noname      0.0000
     66 H14         4.8029   -5.3417    0.0421 H         1 noname      0.0000
     67 H15         6.2793   -8.1821    4.2020 H         1 noname      0.0000
     68 H16         6.5585   -8.8014    2.5278 H         1 noname      0.0000
     69 H17         7.6997  -10.8793    2.2656 H         1 noname      0.0000
     70 H18         5.4628  -11.0643    8.2639 H         1 noname      0.0000
     71 H19         7.6556  -13.7296    8.4026 H         1 noname      0.0000
     72 H20         6.1565  -13.4218    8.8112 H         1 noname      0.0000
     73 C33        -1.5962  -11.1343    0.2318 C.3       1 noname      0.0000
     74 C34        -2.1564  -12.4798   -0.2338 C.3       1 noname      0.0000
     75 C35        -1.6345  -13.5924    0.6777 C.3       1 noname      0.0000
     76 C36        -2.1947  -14.9379    0.2122 C.3       1 noname      0.0000
     77 C37        -2.0807  -13.3244    2.1164 C.3       1 noname      0.0000
     78 H21        -1.9141  -10.9434    1.2567 H         1 noname      0.0000
     79 H22        -0.5074  -11.1593    0.1877 H         1 noname      0.0000
     80 H23        -3.2452  -12.4549   -0.1897 H         1 noname      0.0000
     81 H24        -1.8385  -12.6707   -1.2587 H         1 noname      0.0000
     82 H25        -0.5456  -13.6173    0.6337 H         1 noname      0.0000
     83 H26        -1.8228  -15.7305    0.8615 H         1 noname      0.0000
     84 H27        -3.2835  -14.9130    0.2562 H         1 noname      0.0000
     85 H28        -1.8767  -15.1288   -0.8128 H         1 noname      0.0000
     86 H29        -1.7089  -14.1170    2.7657 H         1 noname      0.0000
     87 H30        -3.1695  -13.2995    2.1604 H         1 noname      0.0000
     88 H31        -1.6816  -12.3659    2.4481 H         1 noname      0.0000
@<TRIPOS>BOND
1	1	3	1
2	1	2	2
3	1	53	1
4	2	6	1
5	2	54	1
6	3	21	1
7	3	5	2
8	4	5	1
9	4	6	1
10	4	16	2
11	5	18	1
12	6	8	2
13	7	17	2
14	7	8	1
15	7	25	1
16	8	55	1
17	9	10	1
18	9	12	1
19	9	13	2
20	10	22	1
21	10	15	2
22	11	22	2
23	11	23	1
24	11	52	1
25	12	23	2
26	12	26	1
27	13	24	1
28	13	56	1
29	14	15	1
30	14	16	1
31	14	24	2
32	15	20	1
33	16	17	1
34	17	57	1
35	18	19	3
36	19	58	1
37	25	59	1
38	26	35	1
39	26	60	1
40	27	32	1
41	27	37	2
42	27	38	2
43	27	28	1
44	28	29	1
45	28	61	1
46	29	30	1
47	29	62	1
48	29	63	1
49	30	31	1
50	30	40	1
51	31	32	2
52	31	33	1
53	32	36	1
54	33	34	2
55	33	64	1
56	34	35	1
57	34	39	1
58	35	36	2
59	36	65	1
60	39	66	1
61	40	41	1
62	40	67	1
63	40	68	1
64	41	42	1
65	41	45	1
66	42	43	2
67	42	69	1
68	43	44	1
69	44	45	2
70	44	46	1
71	45	49	1
72	46	47	2
73	47	48	1
74	47	51	1
75	48	49	1
76	48	70	1
77	49	50	2
78	51	71	1
79	51	72	1
80	52	73	1
81	73	74	1
82	73	78	1
83	73	79	1
84	74	75	1
85	74	80	1
86	74	81	1
87	75	76	1
88	75	77	1
89	75	82	1
90	76	83	1
91	76	84	1
92	76	85	1
93	77	86	1
94	77	87	1
95	77	88	1
@<TRIPOS>SUBSTRUCTURE
1	noname	1
