@<TRIPOS>MOLECULE
lig
77 84 1
SMALL
NO_CHARGES
@<TRIPOS>ATOM
      1 C1         -1.5815    2.9051   -3.0047 C.2       1 noname      0.0000
      2 C2         -2.8306    2.5802   -2.4761 C.2       1 noname      0.0000
      3 C3         -0.6185    1.9205   -3.1459 C.2       1 noname      0.0000
      4 C4         -2.1955    0.1792   -2.1595 C.2       1 noname      0.0000
      5 C5         -0.9317    0.5759   -2.7916 C.2       1 noname      0.0000
      6 C6         -3.1474    1.2653   -2.0621 C.2       1 noname      0.0000
      7 C7         -4.8738   -0.1710   -1.1248 C.2       1 noname      0.0000
      8 C8         -4.4588    1.0858   -1.5532 C.2       1 noname      0.0000
      9 C9          0.3040   -4.2619   -1.2906 C.2       1 noname      0.0000
     10 C10        -1.0236   -4.6773   -1.0121 C.2       1 noname      0.0000
     11 C11        -0.1074   -6.7697   -0.3387 C.2       1 noname      0.0000
     12 C12         1.4070   -5.1168   -1.0866 C.2       1 noname      0.0000
     13 C13         0.5083   -2.9427   -1.6275 C.2       1 noname      0.0000
     14 C14        -1.8325   -2.3731   -1.4845 C.2       1 noname      0.0000
     15 C15        -2.1057   -3.7479   -1.1297 C.2       1 noname      0.0000
     16 C16        -2.6418   -1.1395   -1.6503 C.2       1 noname      0.0000
     17 C17        -0.7611   -8.8017   -0.7674 C.3       1 noname      0.0000
     18 C18        -3.9888   -1.2501   -1.1784 C.2       1 noname      0.0000
     19 C19        -0.7018  -10.2501   -0.2782 C.3       1 noname      0.0000
     20 C20        -1.0468  -11.1401   -1.4820 C.3       1 noname      0.0000
     21 C21         0.3190  -11.4019   -2.1243 C.3       1 noname      0.0000
     22 C22         1.3163  -11.3266   -0.9533 C.3       1 noname      0.0000
     23 C23         0.4563  -11.6122    1.2839 C.3       1 noname      0.0000
     24 C24        -0.9110  -11.3170    1.9163 C.3       1 noname      0.0000
     25 C25        -1.6608  -10.4413    0.9074 C.3       1 noname      0.0000
     26 C26         0.0137   -0.1835   -3.2565 C.1       1 noname      0.0000
     27 C27         0.9285   -0.8211   -3.6668 C.1       1 noname      0.0000
     28 F1         -3.2852   -4.1873   -0.7980 F         1 noname      0.0000
     29 F2          0.5614  -10.4291   -3.0674 F         1 noname      0.0000
     30 F3          0.5128    2.3789   -3.6911 F         1 noname      0.0000
     31 N1         -1.1733   -5.9396   -0.5398 N.2       1 noname      0.0000
     32 N2          1.1506   -6.3649   -0.6408 N.2       1 noname      0.0000
     33 N3         -0.5302   -2.1092   -1.6307 N.2       1 noname      0.0000
     34 N4          0.6482  -10.6461    0.1794 N.3       1 noname      0.0000
     35 O1         -0.2266   -7.9665    0.2422 O.3       1 noname      0.0000
     36 O2         -6.1310   -0.3417   -0.6272 O.3       1 noname      0.0000
     37 N5          2.6892   -4.6292   -1.1854 N.3       1 noname      0.0000
     38 H1         -1.3567    3.8531   -3.3107 H         1 noname      0.0000
     39 H2         -3.4926    3.3536   -2.4046 H         1 noname      0.0000
     40 H3         -5.1365    1.8691   -1.4867 H         1 noname      0.0000
     41 H4          1.4337   -2.5795   -1.8530 H         1 noname      0.0000
     42 H5         -1.7981   -8.5245   -0.9570 H         1 noname      0.0000
     43 H6         -0.1686   -8.6590   -1.6711 H         1 noname      0.0000
     44 H7         -4.3909   -2.1073   -0.8167 H         1 noname      0.0000
     45 H8         -1.6747  -10.5831   -2.1775 H         1 noname      0.0000
     46 H9         -1.4745  -12.0800   -1.1330 H         1 noname      0.0000
     47 H10         0.3555  -12.3843   -2.5923 H         1 noname      0.0000
     48 H11         1.6020  -12.3350   -0.6539 H         1 noname      0.0000
     49 H12         2.1713  -10.7580   -1.3191 H         1 noname      0.0000
     50 H13         0.4605  -12.6264    0.8845 H         1 noname      0.0000
     51 H14         1.2824  -11.5919    1.9948 H         1 noname      0.0000
     52 H15        -1.4538  -12.2511    2.0607 H         1 noname      0.0000
     53 H16        -0.7596  -10.7475    2.8333 H         1 noname      0.0000
     54 H17        -2.5568  -10.9621    0.5696 H         1 noname      0.0000
     55 H18        -1.7956   -9.4437    1.3254 H         1 noname      0.0000
     56 H19         1.6158   -1.3684   -3.9345 H         1 noname      0.0000
     57 H20        -6.6148    0.5099   -0.6627 H         1 noname      0.0000
     58 S1          3.3035   -7.1804    3.0328 S         1 noname      0.0000
     59 N6          3.5512   -8.9243    2.9213 N.3       1 noname      0.0000
     60 C28         4.9347   -9.1831    2.4699 C.3       1 noname      0.0000
     61 N7          5.2964   -8.5358    1.2409 N.3       1 noname      0.0000
     62 C29         4.8981   -7.2994    0.8193 C.2       1 noname      0.0000
     63 C30         3.9407   -6.5318    1.5218 C.2       1 noname      0.0000
     64 C31         5.4020   -6.7854   -0.3972 C.2       1 noname      0.0000
     65 C32         4.8068   -5.6646   -1.0082 C.2       1 noname      0.0000
     66 C33         3.6755   -5.1059   -0.3992 C.2       1 noname      0.0000
     67 C34         3.4021   -5.3700    0.9563 C.2       1 noname      0.0000
     68 O3          1.7361   -6.8786    3.1913 O.2       1 noname      0.0000
     69 O4          4.1156   -6.5727    4.2736 O.2       1 noname      0.0000
     70 H21         3.4078   -9.3482    3.8401 H         1 noname      0.0000
     71 H22         5.0906  -10.2577    2.3741 H         1 noname      0.0000
     72 H23         5.5834   -8.7893    3.2523 H         1 noname      0.0000
     73 H24         6.2493   -8.6374    1.0902 H         1 noname      0.0000
     74 H25         6.1597   -7.2599   -0.8862 H         1 noname      0.0000
     75 H26         5.1113   -5.3530   -1.9332 H         1 noname      0.0000
     76 H27         2.7038   -4.8205    1.4607 H         1 noname      0.0000
     77 H28         2.9740   -4.6539   -2.1123 H         1 noname      0.0000
@<TRIPOS>BOND
1	1	3	1
2	1	2	2
3	1	38	1
4	2	6	1
5	2	39	1
6	3	30	1
7	3	5	2
8	4	5	1
9	4	6	1
10	4	16	2
11	5	26	1
12	6	8	2
13	7	18	2
14	7	8	1
15	7	36	1
16	8	40	1
17	9	10	1
18	9	12	1
19	9	13	2
20	10	31	1
21	10	15	2
22	11	35	1
23	11	31	2
24	11	32	1
25	12	32	2
26	12	37	1
27	13	33	1
28	13	41	1
29	14	15	1
30	14	16	1
31	14	33	2
32	15	28	1
33	16	18	1
34	17	19	1
35	17	35	1
36	17	42	1
37	17	43	1
38	18	44	1
39	19	25	1
40	19	20	1
41	19	34	1
42	20	21	1
43	20	45	1
44	20	46	1
45	21	29	1
46	21	22	1
47	21	47	1
48	22	34	1
49	22	48	1
50	22	49	1
51	23	24	1
52	23	34	1
53	23	50	1
54	23	51	1
55	24	25	1
56	24	52	1
57	24	53	1
58	25	54	1
59	25	55	1
60	26	27	3
61	27	56	1
62	36	57	1
63	37	66	1
64	37	77	1
65	58	63	1
66	58	68	2
67	58	69	2
68	58	59	1
69	59	60	1
70	59	70	1
71	60	61	1
72	60	71	1
73	60	72	1
74	61	62	1
75	61	73	1
76	62	63	2
77	62	64	1
78	63	67	1
79	64	65	2
80	64	74	1
81	65	66	1
82	65	75	1
83	66	67	2
84	67	76	1
@<TRIPOS>SUBSTRUCTURE
1	noname	1
